ligand_5_pose_2_2HRL.pdbqt
 OpenBabel07062320523D

 51 52  0  0  1  0  0  0  0  0999 V2000
   28.4780   27.6020   19.4450 N   0  0  0  0  0  0  0  0  0  0  0  0
   27.3090   27.7250   18.6640 C   0  0  0  0  0  0  0  0  0  0  0  0
   26.1720   27.6460   19.1540 O   0  0  0  0  0  0  0  0  0  0  0  0
   29.3900   27.6630   18.8880 H   0  0  0  0  0  0  0  0  0  0  0  0
   28.5990   27.4140   20.8340 C   0  0  0  0  0  0  0  0  0  0  0  0
   29.9150   27.4460   21.4680 C   0  0  2  0  0  0  0  0  0  0  0  0
   31.0430   28.0280   20.7750 C   0  0  1  0  0  0  0  0  0  0  0  0
   32.0210   28.8570   21.6360 C   0  0  2  0  0  0  0  0  0  0  0  0
   32.9200   28.3680   23.7610 C   0  0  2  0  0  0  0  0  0  0  0  0
   31.8970   29.2970   24.4360 C   0  0  0  0  0  0  0  0  0  0  0  0
   32.3710   27.9470   22.6180 O   0  0  0  0  0  0  0  0  0  0  0  0
   31.7860   30.4840   23.5600 C   0  0  1  0  0  0  0  0  0  0  0  0
   31.5020   30.1430   22.0850 C   0  0  1  0  0  0  0  0  0  0  0  0
   32.9290   27.2340   24.6180 O   0  0  0  0  0  0  0  0  0  0  0  0
   33.5160   27.3860   25.3990 H   0  0  0  0  0  0  0  0  0  0  0  0
   34.2650   28.9060   23.7250 C   0  0  0  0  0  0  0  0  0  0  0  0
   34.7860   29.3820   24.7650 O   0  0  0  0  0  0  0  0  0  0  0  0
   35.0900   28.9550   22.6010 O   0  0  0  0  0  0  0  0  0  0  0  0
   35.1420   29.7790   21.9960 H   0  0  0  0  0  0  0  0  0  0  0  0
   30.7820   31.3830   23.9520 O   0  0  0  0  0  0  0  0  0  0  0  0
   30.0240   31.2150   23.3090 H   0  0  0  0  0  0  0  0  0  0  0  0
   31.9640   31.3190   21.4150 N   0  0  0  0  0  0  0  0  0  0  0  0
   31.1960   32.3430   20.8600 C   0  0  0  0  0  0  0  0  0  0  0  0
   33.0220   31.4050   21.3410 H   0  0  0  0  0  0  0  0  0  0  0  0
   31.8270   33.5170   20.1810 C   0  0  0  0  0  0  0  0  0  0  0  0
   29.9680   32.2410   20.9510 O   0  0  0  0  0  0  0  0  0  0  0  0
   31.7300   27.0490   20.0650 O   0  0  0  0  0  0  0  0  0  0  0  0
   31.3730   26.9270   19.1490 H   0  0  0  0  0  0  0  0  0  0  0  0
   30.2020   26.1710   22.0340 O   0  0  0  0  0  0  0  0  0  0  0  0
   31.0410   25.8110   21.6440 H   0  0  0  0  0  0  0  0  0  0  0  0
   27.3830   27.9460   17.2740 O   0  0  0  0  0  0  0  0  0  0  0  0
   26.9800   29.1850   16.7450 C   0  0  0  0  0  0  0  0  0  0  0  0
   28.0630   30.1680   16.9010 C   0  0  0  0  0  0  0  0  0  0  0  0
   28.5350   30.9720   15.8570 C   0  0  0  0  0  0  0  0  0  0  0  0
   28.7950   30.5130   17.9570 N   0  0  0  0  0  0  0  0  0  0  0  0
   29.5200   31.7540   16.3360 N   0  0  0  0  0  0  0  0  0  0  0  0
   29.6480   31.4430   17.6230 N   0  0  0  0  0  0  0  0  0  0  0  0
   30.2760   32.7210   15.6210 C   0  0  0  0  0  0  0  0  0  0  0  0
   29.7780   33.4170   14.5430 C   0  0  0  0  0  0  0  0  0  0  0  0
   31.5900   33.0110   15.9990 C   0  0  0  0  0  0  0  0  0  0  0  0
   30.5330   34.3610   13.8580 C   0  0  0  0  0  0  0  0  0  0  0  0
   32.3380   33.9490   15.3150 C   0  0  0  0  0  0  0  0  0  0  0  0
   31.8240   34.6360   14.2400 C   0  0  0  0  0  0  0  0  0  0  0  0
   32.5600   35.5620   13.5650 O   0  0  0  0  0  0  0  0  0  0  0  0
   31.9120   36.5780   12.8300 C   0  0  0  0  0  0  0  0  0  0  0  0
   29.8670   25.5550   16.9770 C   0  0  0  0  0  0  0  0  0  0  0  0
   28.3450   25.7220   17.0260 C   0  0  0  0  0  0  0  0  0  0  0  0
   27.6010   24.4050   16.8660 C   0  0  0  0  0  0  0  0  0  0  0  0
   26.5830   24.1950   17.9530 C   0  0  0  0  0  0  0  0  0  0  0  0
   25.2230   23.9020   17.3260 C   0  0  0  0  0  0  0  0  0  0  0  0
   24.8400   22.4890   17.5540 N   0  0  0  0  0  0  0  0  0  0  0  0
  1  5  1  0  0  0  0
  2  3  2  0  0  0  0
  2  1  1  0  0  0  0
  4  1  1  0  0  0  0
  6  5  1  6  0  0  0
  6 29  1  0  0  0  0
  7 27  1  1  0  0  0
  7  6  1  0  0  0  0
  8  7  1  6  0  0  0
  8 13  1  0  0  0  0
  8 11  1  0  0  0  0
  9 16  1  6  0  0  0
  9 10  1  0  0  0  0
  9 14  1  0  0  0  0
 11  9  1  0  0  0  0
 12 20  1  1  0  0  0
 12 10  1  0  0  0  0
 13 22  1  6  0  0  0
 13 12  1  0  0  0  0
 14 15  1  0  0  0  0
 16 17  2  0  0  0  0
 18 16  1  0  0  0  0
 19 18  1  0  0  0  0
 21 20  1  0  0  0  0
 23 26  2  0  0  0  0
 23 22  1  0  0  0  0
 24 22  1  0  0  0  0
 25 23  1  0  0  0  0
 28 27  1  0  0  0  0
 30 29  1  0  0  0  0
 31  2  1  0  0  0  0
 32 33  1  0  0  0  0
 32 31  1  0  0  0  0
 33 35  1  0  0  0  0
 34 36  1  0  0  0  0
 34 33  2  0  0  0  0
 36 37  1  0  0  0  0
 37 35  2  0  0  0  0
 38 40  1  0  0  0  0
 38 36  1  0  0  0  0
 39 38  2  0  0  0  0
 41 43  2  0  0  0  0
 41 39  1  0  0  0  0
 42 40  2  0  0  0  0
 43 42  1  0  0  0  0
 44 43  1  0  0  0  0
 45 44  1  0  0  0  0
 46 47  1  0  0  0  0
 48 47  1  0  0  0  0
 48 49  1  0  0  0  0
 50 51  1  0  0  0  0
 50 49  1  0  0  0  0
M  END
>  <REMARK>
 VINA RESULT:    -5.340      1.901      2.373
 INTER + INTRA:         -14.780
 INTER:                  -9.451
 INTRA:                  -5.329
 UNBOUND:                -5.226
 SMILES COc1ccc(-n2cc(COC(=O)NC[C@@H](O)C(O)[C@@H]3O[C@@](O)(C(=O)O)C[C@H](O)[C@H]3NC(C)=O)nn2)cc1
 SMILES IDX 14 1 12 2 13 3 15 5 16 6 18 7 20 8 22 9 27 10 21 11 28 12
 SMILES IDX 30 13 23 14 24 16 25 17 26 18 29 20 31 22 32 23 33 25 34 26
 SMILES IDX 19 27 17 29 11 31 10 32 9 33 8 34 35 35 7 36 36 37 6 38 5 39
 SMILES IDX 37 40 4 41 38 42 3 43 2 44 1 45
 H PARENT 14 4 23 15 26 19 29 21 31 24 19 28 17 30
 Flexibility Score: inf
  4 active torsions:
  status: ('A' for Active; 'I' for Inactive)
    1  A    between atoms: CA   and  CB  
    2  A    between atoms: CB   and  CG  
    3  A    between atoms: CG   and  CD  
    4  A    between atoms: CD   and  CE  

>  <TORSDO>
F 16

>  <BEGIN_>
RES LYS A 131

$$$$
ligand_5_pose_2_2HRL.pdbqt
 OpenBabel07062320523D

  6  5  0  0  0  0  0  0  0  0999 V2000
   33.1930   34.6630    9.2900 C   0  0  0  0  0  0  0  0  0  0  0  0
   32.0600   35.3600   10.0340 C   0  0  0  0  0  0  0  0  0  0  0  0
   30.7110   34.7290    9.8050 C   0  0  0  0  0  0  0  0  0  0  0  0
   30.4630   34.5160    8.3190 C   0  0  0  0  0  0  0  0  0  0  0  0
   29.0210   34.8290    7.9690 C   0  0  0  0  0  0  0  0  0  0  0  0
   28.9300   35.5590    6.6740 N   0  0  0  0  0  0  0  0  0  0  0  0
  1  2  1  0  0  0  0
  3  2  1  0  0  0  0
  4  3  1  0  0  0  0
  5  4  1  0  0  0  0
  6  5  1  0  0  0  0
M  END
>  <EGIN_R>
ES LYS A 135

>  <REMARK>
  4 active torsions:
  status: ('A' for Active; 'I' for Inactive)
    5  A    between atoms: CA   and  CB  
    6  A    between atoms: CB   and  CG  
    7  A    between atoms: CG   and  CD  
    8  A    between atoms: CD   and  CE  

$$$$
