ligand_28_pose_3_2HRL.pdbqt
 OpenBabel07062320523D

 53 55  0  0  1  0  0  0  0  0999 V2000
   28.0460   28.5090   18.4440 N   0  0  0  0  0  0  0  0  0  0  0  0
   27.1160   28.9100   17.4450 C   0  0  0  0  0  0  0  0  0  0  0  0
   26.0200   28.2740   17.3170 O   0  0  0  0  0  0  0  0  0  0  0  0
   28.9240   29.0420   18.5250 H   0  0  0  0  0  0  0  0  0  0  0  0
   27.6860   27.3850   19.2710 C   0  0  0  0  0  0  0  0  0  0  0  0
   27.6740   27.6970   20.7340 C   0  0  2  0  0  0  0  0  0  0  0  0
   29.0640   27.7890   21.3230 C   0  0  2  0  0  0  0  0  0  0  0  0
   29.3720   29.2220   21.7500 C   0  0  2  0  0  0  0  0  0  0  0  0
   29.8090   30.8560   20.1620 C   0  0  2  0  0  0  0  0  0  0  0  0
   30.8410   31.5550   21.0160 C   0  0  0  0  0  0  0  0  0  0  0  0
   28.8860   30.1430   20.8710 O   0  0  0  0  0  0  0  0  0  0  0  0
   31.0400   30.8630   22.3500 C   0  0  1  0  0  0  0  0  0  0  0  0
   30.8240   29.3860   22.1110 C   0  0  1  0  0  0  0  0  0  0  0  0
   30.4360   30.0520   19.1900 O   0  0  0  0  0  0  0  0  0  0  0  0
   29.9960   29.1900   19.0770 H   0  0  0  0  0  0  0  0  0  0  0  0
   29.0880   31.9180   19.4090 C   0  0  0  0  0  0  0  0  0  0  0  0
   29.6480   33.0320   19.1790 O   0  0  0  0  0  0  0  0  0  0  0  0
   27.7990   31.7710   18.9250 O   0  0  0  0  0  0  0  0  0  0  0  0
   27.1890   31.0940   19.3950 H   0  0  0  0  0  0  0  0  0  0  0  0
   32.2920   31.1400   22.8890 O   0  0  0  0  0  0  0  0  0  0  0  0
   32.3010   30.7890   23.8120 H   0  0  0  0  0  0  0  0  0  0  0  0
   31.1580   28.5680   23.2210 N   0  0  0  0  0  0  0  0  0  0  0  0
   32.0510   27.4690   23.1180 C   0  0  0  0  0  0  0  0  0  0  0  0
   30.7090   28.8070   24.1540 H   0  0  0  0  0  0  0  0  0  0  0  0
   32.3820   26.6260   24.3110 C   0  0  0  0  0  0  0  0  0  0  0  0
   32.5420   27.2480   21.9820 O   0  0  0  0  0  0  0  0  0  0  0  0
   29.9720   27.4620   20.3170 O   0  0  0  0  0  0  0  0  0  0  0  0
   30.3490   28.2880   19.9260 H   0  0  0  0  0  0  0  0  0  0  0  0
   26.9550   26.6890   21.3750 O   0  0  0  0  0  0  0  0  0  0  0  0
   26.5780   26.0350   20.7380 H   0  0  0  0  0  0  0  0  0  0  0  0
   27.3500   29.9800   16.5870 O   0  0  0  0  0  0  0  0  0  0  0  0
   28.4410   29.8930   15.6780 C   0  0  0  0  0  0  0  0  0  0  0  0
   29.3390   31.0600   15.8340 C   0  0  0  0  0  0  0  0  0  0  0  0
   29.0040   32.3480   15.5290 C   0  0  0  0  0  0  0  0  0  0  0  0
   30.5950   31.0930   16.2780 N   0  0  0  0  0  0  0  0  0  0  0  0
   30.0650   33.1230   15.7960 N   0  0  0  0  0  0  0  0  0  0  0  0
   31.0220   32.3490   16.2500 N   0  0  0  0  0  0  0  0  0  0  0  0
   30.1210   34.5560   15.6090 C   0  0  0  0  0  0  0  0  0  0  0  0
   31.4700   35.0020   16.0590 C   0  0  0  0  0  0  0  0  0  0  0  0
   32.4530   35.1870   15.1140 C   0  0  0  0  0  0  0  0  0  0  0  0
   31.7600   35.2310   17.3800 C   0  0  0  0  0  0  0  0  0  0  0  0
   33.7190   35.6030   15.5110 C   0  0  0  0  0  0  0  0  0  0  0  0
   33.0190   35.6430   17.7700 C   0  0  0  0  0  0  0  0  0  0  0  0
   34.0060   35.8320   16.8420 C   0  0  0  0  0  0  0  0  0  0  0  0
   33.5250   35.9290   19.0240 O   0  0  0  0  0  0  0  0  0  0  0  0
   35.1590   36.2400   17.4790 O   0  0  0  0  0  0  0  0  0  0  0  0
   34.7920   36.5140   18.8240 C   0  0  0  0  0  0  0  0  0  0  0  0
   29.8670   25.5550   16.9770 C   0  0  0  0  0  0  0  0  0  0  0  0
   28.3450   25.7220   17.0260 C   0  0  0  0  0  0  0  0  0  0  0  0
   27.6020   24.3980   16.9310 C   0  0  0  0  0  0  0  0  0  0  0  0
   26.1680   24.5210   17.3650 C   0  0  0  0  0  0  0  0  0  0  0  0
   25.9670   23.7710   18.6780 C   0  0  0  0  0  0  0  0  0  0  0  0
   25.0660   24.5310   19.5770 N   0  0  0  0  0  0  0  0  0  0  0  0
  1  4  1  0  0  0  0
  1  5  1  0  0  0  0
  2  1  1  0  0  0  0
  3  2  2  0  0  0  0
  6  5  1  6  0  0  0
  6  7  1  0  0  0  0
  6 29  1  0  0  0  0
  7 27  1  6  0  0  0
  8  7  1  6  0  0  0
  8 13  1  0  0  0  0
  9 14  1  6  0  0  0
  9 11  1  0  0  0  0
  9 10  1  0  0  0  0
 10 12  1  0  0  0  0
 11  8  1  0  0  0  0
 12 20  1  6  0  0  0
 13 12  1  0  0  0  0
 13 22  1  1  0  0  0
 15 14  1  0  0  0  0
 16  9  1  0  0  0  0
 17 16  2  0  0  0  0
 18 19  1  0  0  0  0
 18 16  1  0  0  0  0
 20 21  1  0  0  0  0
 22 24  1  0  0  0  0
 23 22  1  0  0  0  0
 23 25  1  0  0  0  0
 26 23  2  0  0  0  0
 28 27  1  0  0  0  0
 30 29  1  0  0  0  0
 31  2  1  0  0  0  0
 32 33  1  0  0  0  0
 32 31  1  0  0  0  0
 33 35  1  0  0  0  0
 34 36  1  0  0  0  0
 34 33  2  0  0  0  0
 36 37  1  0  0  0  0
 37 35  2  0  0  0  0
 38 36  1  0  0  0  0
 38 39  1  0  0  0  0
 39 41  2  0  0  0  0
 40 42  2  0  0  0  0
 40 39  1  0  0  0  0
 41 43  1  0  0  0  0
 42 44  1  0  0  0  0
 43 45  1  0  0  0  0
 44 46  1  0  0  0  0
 44 43  2  0  0  0  0
 46 47  1  0  0  0  0
 47 45  1  0  0  0  0
 48 49  1  0  0  0  0
 50 49  1  0  0  0  0
 50 51  1  0  0  0  0
 51 52  1  0  0  0  0
 52 53  1  0  0  0  0
M  END
>  <REMARK>
 VINA RESULT:    -5.256      5.511     11.478
 INTER + INTRA:         -15.406
 INTER:                  -8.671
 INTRA:                  -6.735
 UNBOUND:                -6.003
 SMILES CC(=O)N[C@@H]1[C@@H](O)C[C@](O)(C(=O)O)O[C@H]1C(O)[C@H](O)CNC(=O)OCc1cn(Cc2ccc3c(c2)OCO3)nn1
 SMILES IDX 21 1 22 2 23 3 20 5 18 6 16 7 15 8 9 9 8 10 14 11 6 12 5 13
 SMILES IDX 10 14 11 16 12 17 13 18 7 20 4 22 2 23 1 25 3 26 17 27 19 29
 SMILES IDX 24 31 25 32 26 33 27 34 40 35 28 36 39 37 29 38 30 39 31 40
 SMILES IDX 35 41 32 42 34 43 33 44 36 45 38 46 37 47
 H PARENT 21 4 10 15 13 19 7 21 4 24 17 28 19 30
 Flexibility Score: inf
  4 active torsions:
  status: ('A' for Active; 'I' for Inactive)
    1  A    between atoms: CA   and  CB  
    2  A    between atoms: CB   and  CG  
    3  A    between atoms: CG   and  CD  
    4  A    between atoms: CD   and  CE  

>  <TORSDO>
F 16

>  <BEGIN_>
RES LYS A 131

$$$$
ligand_28_pose_3_2HRL.pdbqt
 OpenBabel07062320523D

  6  5  0  0  0  0  0  0  0  0999 V2000
   33.1930   34.6630    9.2900 C   0  0  0  0  0  0  0  0  0  0  0  0
   32.0600   35.3600   10.0340 C   0  0  0  0  0  0  0  0  0  0  0  0
   30.8100   35.5270    9.2090 C   0  0  0  0  0  0  0  0  0  0  0  0
   30.0110   34.2330    9.1770 C   0  0  0  0  0  0  0  0  0  0  0  0
   28.8170   34.3220   10.1080 C   0  0  0  0  0  0  0  0  0  0  0  0
   27.5770   33.8410    9.4370 N   0  0  0  0  0  0  0  0  0  0  0  0
  1  2  1  0  0  0  0
  3  2  1  0  0  0  0
  4  3  1  0  0  0  0
  4  5  1  0  0  0  0
  6  5  1  0  0  0  0
M  END
>  <EGIN_R>
ES LYS A 135

>  <REMARK>
  4 active torsions:
  status: ('A' for Active; 'I' for Inactive)
    5  A    between atoms: CA   and  CB  
    6  A    between atoms: CB   and  CG  
    7  A    between atoms: CG   and  CD  
    8  A    between atoms: CD   and  CE  

$$$$
