ligand_11_pose_16_2HRL.pdbqt
 OpenBabel07062320523D

 54 54  0  0  1  0  0  0  0  0999 V2000
   28.7520   41.1550    8.9420 O   0  0  0  0  0  0  0  0  0  0  0  0
   27.4530   41.3860    8.4750 C   0  0  0  0  0  0  0  0  0  0  0  0
   27.0820   41.1790    7.1380 N   0  0  0  0  0  0  0  0  0  0  0  0
   27.8680   40.8400    6.4900 H   0  0  0  0  0  0  0  0  0  0  0  0
   26.6260   41.7890    9.3090 O   0  0  0  0  0  0  0  0  0  0  0  0
   25.7830   41.3720    6.5590 C   0  0  0  0  0  0  0  0  0  0  0  0
   25.0160   40.1100    6.4970 C   0  0  2  0  0  0  0  0  0  0  0  0
   23.9500   40.0020    7.5710 C   0  0  1  0  0  0  0  0  0  0  0  0
   24.2270   38.7950    8.4740 C   0  0  2  0  0  0  0  0  0  0  0  0
   22.2320   37.5850    8.6590 C   0  0  2  0  0  0  0  0  0  0  0  0
   21.8370   38.6470    9.6460 C   0  0  0  0  0  0  0  0  0  0  0  0
   23.4910   37.7020    8.1570 O   0  0  0  0  0  0  0  0  0  0  0  0
   22.9080   39.0880   10.5780 C   0  0  1  0  0  0  0  0  0  0  0  0
   24.2540   39.1910    9.9200 C   0  0  1  0  0  0  0  0  0  0  0  0
   21.3360   37.6960    7.5950 O   0  0  0  0  0  0  0  0  0  0  0  0
   20.8830   36.8480    7.4070 H   0  0  0  0  0  0  0  0  0  0  0  0
   22.0420   36.2420    9.2630 C   0  0  0  0  0  0  0  0  0  0  0  0
   22.8060   35.2990    8.9500 O   0  0  0  0  0  0  0  0  0  0  0  0
   21.0290   35.9820   10.1810 O   0  0  0  0  0  0  0  0  0  0  0  0
   21.2650   36.1290   11.1630 H   0  0  0  0  0  0  0  0  0  0  0  0
   22.5530   40.3390   11.0780 O   0  0  0  0  0  0  0  0  0  0  0  0
   23.2420   40.6840   11.7060 H   0  0  0  0  0  0  0  0  0  0  0  0
   25.2580   38.4090   10.5790 N   0  0  0  0  0  0  0  0  0  0  0  0
   25.8530   38.8920   11.7720 C   0  0  0  0  0  0  0  0  0  0  0  0
   25.5560   37.4720   10.1780 H   0  0  0  0  0  0  0  0  0  0  0  0
   26.8890   38.0890   12.4530 C   0  0  0  0  0  0  0  0  0  0  0  0
   25.5330   39.9980   12.2860 O   0  0  0  0  0  0  0  0  0  0  0  0
   23.9550   41.1530    8.3340 O   0  0  0  0  0  0  0  0  0  0  0  0
   23.7090   41.9170    7.7540 H   0  0  0  0  0  0  0  0  0  0  0  0
   25.8020   39.0080    6.4040 O   0  0  0  0  0  0  0  0  0  0  0  0
   25.7980   38.4140    7.1880 H   0  0  0  0  0  0  0  0  0  0  0  0
   28.9810   40.1310    9.9070 C   0  0  0  0  0  0  0  0  0  0  0  0
   28.6590   38.8070    9.3910 C   0  0  0  0  0  0  0  0  0  0  0  0
   29.3110   37.6240    9.6110 C   0  0  0  0  0  0  0  0  0  0  0  0
   27.6330   38.4990    8.5830 N   0  0  0  0  0  0  0  0  0  0  0  0
   28.6920   36.6330    8.9530 N   0  0  0  0  0  0  0  0  0  0  0  0
   27.6730   37.2010    8.3370 N   0  0  0  0  0  0  0  0  0  0  0  0
   28.9860   35.2140    8.8620 C   0  0  1  0  0  0  0  0  0  0  0  0
   27.7290   34.4240    8.8410 C   0  0  0  0  0  0  0  0  0  0  0  0
   27.1760   34.0340   10.1600 C   0  0  0  0  0  0  0  0  0  0  0  0
   26.0670   34.8740   10.6080 C   0  0  0  0  0  0  0  0  0  0  0  0
   25.6460   34.8350   11.8160 O   0  0  0  0  0  0  0  0  0  0  0  0
   25.4410   35.7400    9.7080 O   0  0  0  0  0  0  0  0  0  0  0  0
   24.4900   35.5270    9.4440 H   0  0  0  0  0  0  0  0  0  0  0  0
   30.0010   34.8890    7.8750 C   0  0  0  0  0  0  0  0  0  0  0  0
   31.0540   34.2910    8.0880 O   0  0  0  0  0  0  0  0  0  0  0  0
   29.7560   35.3050    6.5530 O   0  0  0  0  0  0  0  0  0  0  0  0
   29.3050   36.1910    6.4030 H   0  0  0  0  0  0  0  0  0  0  0  0
   29.8670   25.5550   16.9770 C   0  0  0  0  0  0  0  0  0  0  0  0
   28.3450   25.7220   17.0260 C   0  0  0  0  0  0  0  0  0  0  0  0
   27.5990   24.4310   16.7250 C   0  0  0  0  0  0  0  0  0  0  0  0
   26.9380   23.8600   17.9490 C   0  0  0  0  0  0  0  0  0  0  0  0
   25.6020   23.2350   17.5610 C   0  0  0  0  0  0  0  0  0  0  0  0
   24.7150   24.2480   16.9430 N   0  0  0  0  0  0  0  0  0  0  0  0
  1 32  1  0  0  0  0
  2  1  1  0  0  0  0
  2  5  2  0  0  0  0
  3  2  1  0  0  0  0
  4  3  1  0  0  0  0
  6  3  1  0  0  0  0
  7  6  1  1  0  0  0
  7  8  1  0  0  0  0
  8 28  1  1  0  0  0
  9  8  1  6  0  0  0
  9 14  1  0  0  0  0
 10 15  1  6  0  0  0
 10 17  1  0  0  0  0
 10 11  1  0  0  0  0
 11 13  1  0  0  0  0
 12  9  1  0  0  0  0
 12 10  1  0  0  0  0
 13 21  1  6  0  0  0
 14 13  1  0  0  0  0
 14 23  1  1  0  0  0
 16 15  1  0  0  0  0
 17 19  1  0  0  0  0
 18 17  2  0  0  0  0
 19 20  1  0  0  0  0
 21 22  1  0  0  0  0
 23 24  1  0  0  0  0
 24 27  2  0  0  0  0
 24 26  1  0  0  0  0
 25 23  1  0  0  0  0
 29 28  1  0  0  0  0
 30  7  1  0  0  0  0
 30 31  1  0  0  0  0
 33 34  2  0  0  0  0
 33 32  1  0  0  0  0
 35 33  1  0  0  0  0
 36 34  1  0  0  0  0
 37 35  2  0  0  0  0
 37 36  1  0  0  0  0
 38 39  1  6  0  0  0
 38 36  1  0  0  0  0
 39 40  1  0  0  0  0
 40 41  1  0  0  0  0
 41 42  2  0  0  0  0
 43 41  1  0  0  0  0
 44 43  1  0  0  0  0
 45 46  2  0  0  0  0
 45 38  1  0  0  0  0
 47 45  1  0  0  0  0
 48 47  1  0  0  0  0
 49 50  1  0  0  0  0
 51 50  1  0  0  0  0
 51 52  1  0  0  0  0
 53 52  1  0  0  0  0
 54 53  1  0  0  0  0
M  END
>  <REMARK>
 VINA RESULT:    -3.829      2.415      4.446
 INTER + INTRA:         -15.183
 INTER:                  -7.745
 INTRA:                  -7.438
 UNBOUND:                -7.438
 SMILES CC(=O)N[C@@H]1[C@@H](O)C[C@](O)(C(=O)O)O[C@H]1C(O)[C@H](O)CNC(=O)OCc1cn([C@@H](CCC(=O)O)C(=O)O)nn1
 SMILES IDX 24 1 22 2 21 3 23 5 20 6 18 7 16 8 15 9 9 10 8 11 14 12 6 13
 SMILES IDX 5 14 10 15 11 17 12 18 13 19 7 21 4 23 2 24 1 26 3 27 17 28
 SMILES IDX 19 30 25 32 26 33 27 34 39 35 28 36 38 37 29 38 30 39 31 40
 SMILES IDX 32 41 33 42 34 43 35 45 36 46 37 47
 H PARENT 21 4 10 16 13 20 7 22 4 25 17 29 19 31 34 44 37 48
 Flexibility Score: inf
  4 active torsions:
  status: ('A' for Active; 'I' for Inactive)
    1  A    between atoms: CA   and  CB  
    2  A    between atoms: CB   and  CG  
    3  A    between atoms: CG   and  CD  
    4  A    between atoms: CD   and  CE  

>  <TORSDO>
F 21

>  <BEGIN_>
RES LYS A 131

$$$$
ligand_11_pose_16_2HRL.pdbqt
 OpenBabel07062320523D

  6  5  0  0  0  0  0  0  0  0999 V2000
   33.1930   34.6630    9.2900 C   0  0  0  0  0  0  0  0  0  0  0  0
   32.0600   35.3600   10.0340 C   0  0  0  0  0  0  0  0  0  0  0  0
   32.5250   36.1720   11.2150 C   0  0  0  0  0  0  0  0  0  0  0  0
   31.4350   36.2520   12.2740 C   0  0  0  0  0  0  0  0  0  0  0  0
   30.8140   34.8870   12.5030 C   0  0  0  0  0  0  0  0  0  0  0  0
   29.3380   34.9910   12.6700 N   0  0  0  0  0  0  0  0  0  0  0  0
  1  2  1  0  0  0  0
  2  3  1  0  0  0  0
  3  4  1  0  0  0  0
  4  5  1  0  0  0  0
  5  6  1  0  0  0  0
M  END
>  <EGIN_R>
ES LYS A 135

>  <REMARK>
  4 active torsions:
  status: ('A' for Active; 'I' for Inactive)
    5  A    between atoms: CA   and  CB  
    6  A    between atoms: CB   and  CG  
    7  A    between atoms: CG   and  CD  
    8  A    between atoms: CD   and  CE  

$$$$
