ligand_23_pose_5_2HRL.pdbqt
 OpenBabel07062320523D

 55 56  0  0  1  0  0  0  0  0999 V2000
   29.6090   30.7070   18.1400 N   0  0  0  0  0  0  0  0  0  0  0  0
   28.7390   30.3300   19.1950 C   0  0  0  0  0  0  0  0  0  0  0  0
   28.4720   31.1620   20.0790 O   0  0  0  0  0  0  0  0  0  0  0  0
   29.7900   29.9520   17.4250 H   0  0  0  0  0  0  0  0  0  0  0  0
   30.2020   32.0170   18.0450 C   0  0  0  0  0  0  0  0  0  0  0  0
   30.5770   32.3400   16.6140 C   0  0  2  0  0  0  0  0  0  0  0  0
   29.4410   33.1170   15.9640 C   0  0  1  0  0  0  0  0  0  0  0  0
   29.8570   33.4750   14.5390 C   0  0  2  0  0  0  0  0  0  0  0  0
   31.5720   34.9970   14.1980 C   0  0  2  0  0  0  0  0  0  0  0  0
   30.9640   35.5260   12.9200 C   0  0  0  0  0  0  0  0  0  0  0  0
   31.1970   33.6970   14.4730 O   0  0  0  0  0  0  0  0  0  0  0  0
   29.5660   35.0580   12.7000 C   0  0  1  0  0  0  0  0  0  0  0  0
   28.9950   34.5960   14.0410 C   0  0  1  0  0  0  0  0  0  0  0  0
   31.2800   35.8130   15.2880 O   0  0  0  0  0  0  0  0  0  0  0  0
   30.9280   35.2350   16.0350 H   0  0  0  0  0  0  0  0  0  0  0  0
   33.0470   35.0060   14.0120 C   0  0  0  0  0  0  0  0  0  0  0  0
   33.8320   35.2500   14.9660 O   0  0  0  0  0  0  0  0  0  0  0  0
   33.6340   34.7430   12.7730 O   0  0  0  0  0  0  0  0  0  0  0  0
   34.4150   34.1010   12.7010 H   0  0  0  0  0  0  0  0  0  0  0  0
   28.7380   36.0010   12.1160 O   0  0  0  0  0  0  0  0  0  0  0  0
   28.3530   35.7020   11.2440 H   0  0  0  0  0  0  0  0  0  0  0  0
   27.6610   34.0620   13.8270 N   0  0  0  0  0  0  0  0  0  0  0  0
   26.4830   34.8270   14.0730 C   0  0  0  0  0  0  0  0  0  0  0  0
   27.5620   33.0690   13.4760 H   0  0  0  0  0  0  0  0  0  0  0  0
   25.1710   34.1780   13.8180 C   0  0  0  0  0  0  0  0  0  0  0  0
   26.6180   35.9920   14.4840 O   0  0  0  0  0  0  0  0  0  0  0  0
   28.3420   32.2790   15.8960 O   0  0  0  0  0  0  0  0  0  0  0  0
   27.5230   32.7350   16.2030 H   0  0  0  0  0  0  0  0  0  0  0  0
   30.7750   31.1270   15.9320 O   0  0  0  0  0  0  0  0  0  0  0  0
   29.9410   30.5610   15.9570 H   0  0  0  0  0  0  0  0  0  0  0  0
   28.1810   29.0490   19.2580 O   0  0  0  0  0  0  0  0  0  0  0  0
   26.8160   28.8300   18.9660 C   0  0  0  0  0  0  0  0  0  0  0  0
   26.5020   29.3180   17.6000 C   0  0  0  0  0  0  0  0  0  0  0  0
   25.2510   29.7140   17.1680 C   0  0  0  0  0  0  0  0  0  0  0  0
   27.3240   29.4680   16.5550 N   0  0  0  0  0  0  0  0  0  0  0  0
   25.4090   30.0780   15.8860 N   0  0  0  0  0  0  0  0  0  0  0  0
   26.6680   29.9320   15.5020 N   0  0  0  0  0  0  0  0  0  0  0  0
   24.3730   30.5590   15.0320 C   0  0  0  0  0  0  0  0  0  0  0  0
   23.3440   31.3550   15.4840 C   0  0  0  0  0  0  0  0  0  0  0  0
   24.3680   30.2320   13.6860 C   0  0  0  0  0  0  0  0  0  0  0  0
   22.3350   31.8210   14.6430 C   0  0  0  0  0  0  0  0  0  0  0  0
   23.3890   30.6770   12.8400 C   0  0  0  0  0  0  0  0  0  0  0  0
   22.3750   31.4710   13.3210 C   0  0  0  0  0  0  0  0  0  0  0  0
   21.0420   32.8230   15.2180 S   0  0  0  0  0  0  0  0  0  0  0  0
   20.7680   33.8820   14.1810 O   0  0  0  0  0  0  0  0  0  0  0  0
   21.4910   33.5510   16.4630 O   0  0  0  0  0  0  0  0  0  0  0  0
   19.6090   31.9190   15.4930 N   0  0  0  0  0  0  0  0  0  0  0  0
   19.7780   30.9210   15.2770 H   0  0  0  0  0  0  0  0  0  0  0  0
   18.7940   32.2920   14.9630 H   0  0  0  0  0  0  0  0  0  0  0  0
   29.8670   25.5550   16.9770 C   0  0  0  0  0  0  0  0  0  0  0  0
   28.3450   25.7220   17.0260 C   0  0  0  0  0  0  0  0  0  0  0  0
   27.6020   24.4000   16.9130 C   0  0  0  0  0  0  0  0  0  0  0  0
   26.1560   24.5280   17.3050 C   0  0  0  0  0  0  0  0  0  0  0  0
   25.8920   23.6950   18.5560 C   0  0  0  0  0  0  0  0  0  0  0  0
   25.5210   24.5690   19.6930 N   0  0  0  0  0  0  0  0  0  0  0  0
  1  2  1  0  0  0  0
  2 31  1  0  0  0  0
  2  3  2  0  0  0  0
  4  1  1  0  0  0  0
  5  1  1  0  0  0  0
  6  5  1  1  0  0  0
  7 27  1  6  0  0  0
  7  6  1  0  0  0  0
  8  7  1  1  0  0  0
  9 16  1  6  0  0  0
  9 11  1  0  0  0  0
  9 14  1  0  0  0  0
 10  9  1  0  0  0  0
 11  8  1  0  0  0  0
 12 20  1  1  0  0  0
 12 10  1  0  0  0  0
 12 13  1  0  0  0  0
 13 22  1  6  0  0  0
 13  8  1  0  0  0  0
 14 15  1  0  0  0  0
 16 17  2  0  0  0  0
 18 16  1  0  0  0  0
 19 18  1  0  0  0  0
 21 20  1  0  0  0  0
 22 23  1  0  0  0  0
 23 26  2  0  0  0  0
 24 22  1  0  0  0  0
 25 23  1  0  0  0  0
 27 28  1  0  0  0  0
 29 30  1  0  0  0  0
 29  6  1  0  0  0  0
 32 31  1  0  0  0  0
 33 32  1  0  0  0  0
 34 33  2  0  0  0  0
 35 33  1  0  0  0  0
 36 34  1  0  0  0  0
 37 36  1  0  0  0  0
 37 35  2  0  0  0  0
 38 39  1  0  0  0  0
 38 36  1  0  0  0  0
 40 38  2  0  0  0  0
 41 44  1  0  0  0  0
 41 39  2  0  0  0  0
 42 43  2  0  0  0  0
 42 40  1  0  0  0  0
 43 41  1  0  0  0  0
 44 47  1  0  0  0  0
 44 46  2  0  0  0  0
 45 44  2  0  0  0  0
 48 47  1  0  0  0  0
 49 47  1  0  0  0  0
 50 51  1  0  0  0  0
 52 51  1  0  0  0  0
 52 53  1  0  0  0  0
 53 54  1  0  0  0  0
 54 55  1  0  0  0  0
M  END
>  <REMARK>
 VINA RESULT:    -4.519      4.175      8.158
 INTER + INTRA:         -14.841
 INTER:                  -8.449
 INTRA:                  -6.393
 UNBOUND:                -6.624
 SMILES CC(=O)N[C@@H]1[C@@H](O)C[C@](O)(C(=O)O)O[C@H]1C(O)[C@H](O)CNC(=O)OCc1cn(-c2cccc(S(N)(=O)=O)c2)nn1
 SMILES IDX 21 1 22 2 23 3 20 5 18 6 16 7 15 8 9 9 8 10 14 11 6 12 5 13
 SMILES IDX 10 14 11 16 12 17 13 18 7 20 4 22 2 23 1 25 3 26 17 27 19 29
 SMILES IDX 24 31 25 32 26 33 27 34 40 35 28 36 39 37 29 38 38 39 30 40
 SMILES IDX 33 41 31 42 32 43 34 44 36 45 37 46 35 47
 H PARENT 21 4 10 15 13 19 7 21 4 24 17 28 19 30 35 48 35 49
 Flexibility Score: inf
  4 active torsions:
  status: ('A' for Active; 'I' for Inactive)
    1  A    between atoms: CA   and  CB  
    2  A    between atoms: CB   and  CG  
    3  A    between atoms: CG   and  CD  
    4  A    between atoms: CD   and  CE  

>  <TORSDO>
F 17

>  <BEGIN_>
RES LYS A 131

$$$$
ligand_23_pose_5_2HRL.pdbqt
 OpenBabel07062320523D

  6  5  0  0  0  0  0  0  0  0999 V2000
   33.1930   34.6630    9.2900 C   0  0  0  0  0  0  0  0  0  0  0  0
   32.0600   35.3600   10.0340 C   0  0  0  0  0  0  0  0  0  0  0  0
   30.8040   35.5100    9.2150 C   0  0  0  0  0  0  0  0  0  0  0  0
   30.1240   34.1620    9.0240 C   0  0  0  0  0  0  0  0  0  0  0  0
   28.6580   34.3490    8.6830 C   0  0  0  0  0  0  0  0  0  0  0  0
   27.7850   33.6610    9.6730 N   0  0  0  0  0  0  0  0  0  0  0  0
  1  2  1  0  0  0  0
  3  2  1  0  0  0  0
  4  3  1  0  0  0  0
  5  4  1  0  0  0  0
  5  6  1  0  0  0  0
M  END
>  <EGIN_R>
ES LYS A 135

>  <REMARK>
  4 active torsions:
  status: ('A' for Active; 'I' for Inactive)
    5  A    between atoms: CA   and  CB  
    6  A    between atoms: CB   and  CG  
    7  A    between atoms: CG   and  CD  
    8  A    between atoms: CD   and  CE  

$$$$
