ligand_29_pose_4_2HRL.pdbqt
 OpenBabel07062320523D

 54 55  0  0  1  0  0  0  0  0999 V2000
   19.5250   34.1110   10.5110 N   0  0  0  0  0  0  0  0  0  0  0  0
   19.4550   33.2510   11.6150 C   0  0  0  0  0  0  0  0  0  0  0  0
   18.6460   32.2990   11.6490 O   0  0  0  0  0  0  0  0  0  0  0  0
   20.2340   34.9040   10.5670 H   0  0  0  0  0  0  0  0  0  0  0  0
   18.7210   34.0180    9.3050 C   0  0  0  0  0  0  0  0  0  0  0  0
   19.1460   35.0320    8.3050 C   0  0  2  0  0  0  0  0  0  0  0  0
   18.4660   36.3720    8.4470 C   0  0  2  0  0  0  0  0  0  0  0  0
   19.2980   37.5420    8.0400 C   0  0  2  0  0  0  0  0  0  0  0  0
   21.4290   37.1480    8.9020 C   0  0  2  0  0  0  0  0  0  0  0  0
   21.7770   38.6180    9.0940 C   0  0  0  0  0  0  0  0  0  0  0  0
   20.6060   37.0700    7.8120 O   0  0  0  0  0  0  0  0  0  0  0  0
   20.6540   39.4610    8.5620 C   0  0  1  0  0  0  0  0  0  0  0  0
   19.2690   38.7700    8.8430 C   0  0  1  0  0  0  0  0  0  0  0  0
   20.9160   36.5950   10.0710 O   0  0  0  0  0  0  0  0  0  0  0  0
   20.5460   35.6850    9.9310 H   0  0  0  0  0  0  0  0  0  0  0  0
   22.6770   36.3930    8.5890 C   0  0  0  0  0  0  0  0  0  0  0  0
   23.5620   36.9470    7.8960 O   0  0  0  0  0  0  0  0  0  0  0  0
   22.8980   35.0980    9.0330 O   0  0  0  0  0  0  0  0  0  0  0  0
   22.1330   34.4220    9.1520 H   0  0  0  0  0  0  0  0  0  0  0  0
   20.6310   40.7300    9.1300 O   0  0  0  0  0  0  0  0  0  0  0  0
   19.7170   41.0840    9.1840 H   0  0  0  0  0  0  0  0  0  0  0  0
   18.3210   39.7550    8.3020 N   0  0  0  0  0  0  0  0  0  0  0  0
   16.9780   39.8800    8.7330 C   0  0  0  0  0  0  0  0  0  0  0  0
   18.6290   40.4300    7.5430 H   0  0  0  0  0  0  0  0  0  0  0  0
   16.0420   40.8830    8.1650 C   0  0  0  0  0  0  0  0  0  0  0  0
   16.5440   39.1180    9.6320 O   0  0  0  0  0  0  0  0  0  0  0  0
   18.2310   36.5660    9.8680 O   0  0  0  0  0  0  0  0  0  0  0  0
   17.8320   37.4630    9.9690 H   0  0  0  0  0  0  0  0  0  0  0  0
   19.2910   34.5910    7.0160 O   0  0  0  0  0  0  0  0  0  0  0  0
   18.6190   34.9310    6.3950 H   0  0  0  0  0  0  0  0  0  0  0  0
   20.3000   33.4340   12.7310 O   0  0  0  0  0  0  0  0  0  0  0  0
   21.6250   32.8850   12.6580 C   0  0  0  0  0  0  0  0  0  0  0  0
   22.6180   33.9210   12.3800 C   0  0  0  0  0  0  0  0  0  0  0  0
   23.9810   33.7780   12.4140 C   0  0  0  0  0  0  0  0  0  0  0  0
   22.3540   35.1910   12.0340 N   0  0  0  0  0  0  0  0  0  0  0  0
   24.5180   34.9510   12.0930 N   0  0  0  0  0  0  0  0  0  0  0  0
   23.5270   35.7880   11.8670 N   0  0  0  0  0  0  0  0  0  0  0  0
   25.9360   35.2800   12.0060 C   0  0  0  0  0  0  0  0  0  0  0  0
   26.2740   35.5160   10.5680 C   0  0  0  0  0  0  0  0  0  0  0  0
   26.5370   36.8140   10.1340 C   0  0  0  0  0  0  0  0  0  0  0  0
   26.3450   34.4960    9.6430 C   0  0  0  0  0  0  0  0  0  0  0  0
   26.8590   37.0730    8.8240 C   0  0  0  0  0  0  0  0  0  0  0  0
   26.6660   34.7240    8.3200 C   0  0  0  0  0  0  0  0  0  0  0  0
   26.9200   36.0190    7.9320 C   0  0  0  0  0  0  0  0  0  0  0  0
   27.1240   38.3650    8.3770 O   0  0  0  0  0  0  0  0  0  0  0  0
   26.1050   39.3420    8.5010 C   0  0  0  0  0  0  0  0  0  0  0  0
   27.2460   36.2900    6.6120 O   0  0  0  0  0  0  0  0  0  0  0  0
   28.5170   35.9790    6.0740 C   0  0  0  0  0  0  0  0  0  0  0  0
   29.8670   25.5550   16.9770 C   0  0  0  0  0  0  0  0  0  0  0  0
   28.3450   25.7220   17.0260 C   0  0  0  0  0  0  0  0  0  0  0  0
   27.6030   24.3950   16.9800 C   0  0  0  0  0  0  0  0  0  0  0  0
   26.1110   24.5780   17.0230 C   0  0  0  0  0  0  0  0  0  0  0  0
   25.4730   23.3890   17.7340 C   0  0  0  0  0  0  0  0  0  0  0  0
   25.8600   23.3710   19.1650 N   0  0  0  0  0  0  0  0  0  0  0  0
  1  4  1  0  0  0  0
  1  2  1  0  0  0  0
  2  3  2  0  0  0  0
  2 31  1  0  0  0  0
  5  1  1  0  0  0  0
  6  7  1  0  0  0  0
  6  5  1  1  0  0  0
  7 27  1  1  0  0  0
  8  7  1  1  0  0  0
  8 13  1  0  0  0  0
  9 16  1  6  0  0  0
  9 10  1  0  0  0  0
  9 14  1  0  0  0  0
 11  8  1  0  0  0  0
 11  9  1  0  0  0  0
 12 13  1  0  0  0  0
 12 10  1  0  0  0  0
 12 20  1  1  0  0  0
 13 22  1  6  0  0  0
 15 14  1  0  0  0  0
 16 18  1  0  0  0  0
 17 16  2  0  0  0  0
 18 19  1  0  0  0  0
 20 21  1  0  0  0  0
 22 23  1  0  0  0  0
 23 26  2  0  0  0  0
 24 22  1  0  0  0  0
 25 23  1  0  0  0  0
 27 28  1  0  0  0  0
 29  6  1  0  0  0  0
 30 29  1  0  0  0  0
 32 31  1  0  0  0  0
 33 34  2  0  0  0  0
 33 32  1  0  0  0  0
 35 33  1  0  0  0  0
 36 34  1  0  0  0  0
 37 35  2  0  0  0  0
 37 36  1  0  0  0  0
 38 36  1  0  0  0  0
 39 38  1  0  0  0  0
 40 39  1  0  0  0  0
 41 39  2  0  0  0  0
 42 40  2  0  0  0  0
 43 41  1  0  0  0  0
 44 43  2  0  0  0  0
 44 42  1  0  0  0  0
 45 46  1  0  0  0  0
 45 42  1  0  0  0  0
 47 44  1  0  0  0  0
 48 47  1  0  0  0  0
 49 50  1  0  0  0  0
 51 52  1  0  0  0  0
 51 50  1  0  0  0  0
 52 53  1  0  0  0  0
 53 54  1  0  0  0  0
M  END
>  <REMARK>
 VINA RESULT:    -5.232      5.836     10.573
 INTER + INTRA:         -15.091
 INTER:                  -8.505
 INTRA:                  -6.586
 UNBOUND:                -5.118
 SMILES COc1ccc(Cn2cc(COC(=O)NC[C@@H](O)C(O)[C@@H]3O[C@@](O)(C(=O)O)C[C@H](O)[C@H]3NC(C)=O)nn2)cc1OC
 SMILES IDX 15 1 13 2 14 3 16 5 17 6 19 7 21 8 23 9 28 10 22 11 29 12
 SMILES IDX 31 13 24 14 25 16 26 17 27 18 30 20 32 22 33 23 34 25 35 26
 SMILES IDX 20 27 18 29 12 31 11 32 10 33 9 34 36 35 8 36 37 37 7 38
 SMILES IDX 6 39 38 40 5 41 39 42 4 43 3 44 40 45 41 46 2 47 1 48
 H PARENT 15 4 24 15 27 19 30 21 32 24 20 28 18 30
 Flexibility Score: inf
  4 active torsions:
  status: ('A' for Active; 'I' for Inactive)
    1  A    between atoms: CA   and  CB  
    2  A    between atoms: CB   and  CG  
    3  A    between atoms: CG   and  CD  
    4  A    between atoms: CD   and  CE  

>  <TORSDO>
F 18

>  <BEGIN_>
RES LYS A 131

$$$$
ligand_29_pose_4_2HRL.pdbqt
 OpenBabel07062320523D

  6  5  0  0  0  0  0  0  0  0999 V2000
   33.1930   34.6630    9.2900 C   0  0  0  0  0  0  0  0  0  0  0  0
   32.0600   35.3600   10.0340 C   0  0  0  0  0  0  0  0  0  0  0  0
   30.6890   34.9610    9.5530 C   0  0  0  0  0  0  0  0  0  0  0  0
   29.7380   34.7880   10.7280 C   0  0  0  0  0  0  0  0  0  0  0  0
   30.5020   34.7980   12.0380 C   0  0  0  0  0  0  0  0  0  0  0  0
   29.6330   34.3700   13.1690 N   0  0  0  0  0  0  0  0  0  0  0  0
  1  2  1  0  0  0  0
  3  2  1  0  0  0  0
  3  4  1  0  0  0  0
  4  5  1  0  0  0  0
  5  6  1  0  0  0  0
M  END
>  <EGIN_R>
ES LYS A 135

>  <REMARK>
  4 active torsions:
  status: ('A' for Active; 'I' for Inactive)
    5  A    between atoms: CA   and  CB  
    6  A    between atoms: CB   and  CG  
    7  A    between atoms: CG   and  CD  
    8  A    between atoms: CD   and  CE  

$$$$
