ligand_0_pose_3_2HRL.pdbqt
 OpenBabel07062320523D

 54 55  0  0  1  0  0  0  0  0999 V2000
   22.0110   37.0020   13.2530 N   0  0  0  0  0  0  0  0  0  0  0  0
   23.3500   37.2640   13.6450 C   0  0  0  0  0  0  0  0  0  0  0  0
   23.6570   38.4090   14.0210 O   0  0  0  0  0  0  0  0  0  0  0  0
   21.8170   36.0070   12.9430 H   0  0  0  0  0  0  0  0  0  0  0  0
   20.9470   37.9750   13.2550 C   0  0  0  0  0  0  0  0  0  0  0  0
   20.9570   38.8490   12.0120 C   0  0  2  0  0  0  0  0  0  0  0  0
   21.3560   38.0790   10.7890 C   0  0  1  0  0  0  0  0  0  0  0  0
   20.2950   37.9460    9.7640 C   0  0  2  0  0  0  0  0  0  0  0  0
   19.7690   36.5340    7.9740 C   0  0  2  0  0  0  0  0  0  0  0  0
   18.4960   37.3270    8.0090 C   0  0  0  0  0  0  0  0  0  0  0  0
   20.6340   36.8080    8.9850 O   0  0  0  0  0  0  0  0  0  0  0  0
   18.6920   38.7950    8.1760 C   0  0  1  0  0  0  0  0  0  0  0  0
   20.0560   39.0450    8.8110 C   0  0  1  0  0  0  0  0  0  0  0  0
   20.3630   36.6730    6.6980 O   0  0  0  0  0  0  0  0  0  0  0  0
   21.1700   37.2550    6.8060 H   0  0  0  0  0  0  0  0  0  0  0  0
   19.3820   35.0970    8.0790 C   0  0  0  0  0  0  0  0  0  0  0  0
   19.3420   34.5730    9.2340 O   0  0  0  0  0  0  0  0  0  0  0  0
   19.0660   34.3080    6.9950 O   0  0  0  0  0  0  0  0  0  0  0  0
   19.1110   33.3020    7.0500 H   0  0  0  0  0  0  0  0  0  0  0  0
   18.5900   39.4080    6.9370 O   0  0  0  0  0  0  0  0  0  0  0  0
   17.7700   39.9510    6.8290 H   0  0  0  0  0  0  0  0  0  0  0  0
   20.2280   40.3810    9.2350 N   0  0  0  0  0  0  0  0  0  0  0  0
   21.3560   41.1460    8.8700 C   0  0  0  0  0  0  0  0  0  0  0  0
   19.5110   40.8530    9.8200 H   0  0  0  0  0  0  0  0  0  0  0  0
   21.5880   42.5460    9.2850 C   0  0  0  0  0  0  0  0  0  0  0  0
   22.2180   40.6040    8.1450 O   0  0  0  0  0  0  0  0  0  0  0  0
   22.6400   38.2940   10.3460 O   0  0  0  0  0  0  0  0  0  0  0  0
   22.7430   37.9380    9.4120 H   0  0  0  0  0  0  0  0  0  0  0  0
   21.6030   40.0370   12.2100 O   0  0  0  0  0  0  0  0  0  0  0  0
   22.1890   40.2630   11.4360 H   0  0  0  0  0  0  0  0  0  0  0  0
   24.3350   36.2840   13.6250 O   0  0  0  0  0  0  0  0  0  0  0  0
   24.1590   35.0500   12.9490 C   0  0  0  0  0  0  0  0  0  0  0  0
   24.2390   35.2540   11.4710 C   0  0  0  0  0  0  0  0  0  0  0  0
   25.3940   35.5120   10.7570 C   0  0  0  0  0  0  0  0  0  0  0  0
   23.2400   35.2270   10.5750 N   0  0  0  0  0  0  0  0  0  0  0  0
   25.0430   35.6320    9.4420 N   0  0  0  0  0  0  0  0  0  0  0  0
   23.7560   35.4570    9.3680 N   0  0  0  0  0  0  0  0  0  0  0  0
   25.9560   35.9100    8.3730 C   0  0  0  0  0  0  0  0  0  0  0  0
   25.8760   37.0620    7.6260 C   0  0  0  0  0  0  0  0  0  0  0  0
   26.9460   34.9710    8.1010 C   0  0  0  0  0  0  0  0  0  0  0  0
   26.8050   37.2610    6.6000 C   0  0  0  0  0  0  0  0  0  0  0  0
   27.8480   35.1850    7.0880 C   0  0  0  0  0  0  0  0  0  0  0  0
   27.7680   36.3320    6.3440 C   0  0  0  0  0  0  0  0  0  0  0  0
   24.8670   38.0830    7.8590 C   0  0  0  0  0  0  0  0  0  0  0  0
   25.1820   39.0530    8.6230 O   0  0  0  0  0  0  0  0  0  0  0  0
   23.5720   38.0380    7.2770 N   0  0  0  0  0  0  0  0  0  0  0  0
   23.4080   38.2090    6.2720 H   0  0  0  0  0  0  0  0  0  0  0  0
   22.7660   37.8230    7.9380 H   0  0  0  0  0  0  0  0  0  0  0  0
   29.8670   25.5550   16.9770 C   0  0  0  0  0  0  0  0  0  0  0  0
   28.3450   25.7220   17.0260 C   0  0  0  0  0  0  0  0  0  0  0  0
   27.6010   24.4010   16.9040 C   0  0  0  0  0  0  0  0  0  0  0  0
   26.1520   24.5290   17.2840 C   0  0  0  0  0  0  0  0  0  0  0  0
   25.7870   23.4330   18.2790 C   0  0  0  0  0  0  0  0  0  0  0  0
   25.0960   22.3170   17.5910 N   0  0  0  0  0  0  0  0  0  0  0  0
  1  5  1  0  0  0  0
  1  2  1  0  0  0  0
  2  3  2  0  0  0  0
  4  1  1  0  0  0  0
  6 29  1  0  0  0  0
  6  5  1  1  0  0  0
  7 27  1  6  0  0  0
  7  6  1  0  0  0  0
  8  7  1  1  0  0  0
  9 14  1  6  0  0  0
  9 10  1  0  0  0  0
  9 16  1  0  0  0  0
  9 11  1  0  0  0  0
 10 12  1  0  0  0  0
 11  8  1  0  0  0  0
 12 20  1  6  0  0  0
 12 13  1  0  0  0  0
 13 22  1  1  0  0  0
 13  8  1  0  0  0  0
 14 15  1  0  0  0  0
 16 17  2  0  0  0  0
 18 19  1  0  0  0  0
 18 16  1  0  0  0  0
 21 20  1  0  0  0  0
 22 24  1  0  0  0  0
 23 22  1  0  0  0  0
 23 25  1  0  0  0  0
 26 23  2  0  0  0  0
 28 27  1  0  0  0  0
 30 29  1  0  0  0  0
 31  2  1  0  0  0  0
 32 31  1  0  0  0  0
 33 32  1  0  0  0  0
 34 33  2  0  0  0  0
 35 33  1  0  0  0  0
 36 34  1  0  0  0  0
 37 36  1  0  0  0  0
 37 35  2  0  0  0  0
 38 36  1  0  0  0  0
 39 44  1  0  0  0  0
 39 38  2  0  0  0  0
 40 38  1  0  0  0  0
 41 39  1  0  0  0  0
 42 40  2  0  0  0  0
 43 41  2  0  0  0  0
 43 42  1  0  0  0  0
 44 45  2  0  0  0  0
 46 44  1  0  0  0  0
 46 48  1  0  0  0  0
 47 46  1  0  0  0  0
 49 50  1  0  0  0  0
 51 50  1  0  0  0  0
 51 52  1  0  0  0  0
 52 53  1  0  0  0  0
 54 53  1  0  0  0  0
M  END
>  <REMARK>
 VINA RESULT:    -5.420      8.036     13.800
 INTER + INTRA:         -15.112
 INTER:                  -8.508
 INTRA:                  -6.604
 UNBOUND:                -5.414
 SMILES CC(=O)N[C@@H]1[C@@H](O)C[C@](O)(C(=O)O)O[C@H]1C(O)[C@H](O)CNC(=O)OCc1cn(-c2ccccc2C(N)=O)nn1
 SMILES IDX 21 1 22 2 23 3 20 5 18 6 16 7 15 8 9 9 8 10 14 11 6 12 5 13
 SMILES IDX 10 14 11 16 12 17 13 18 7 20 4 22 2 23 1 25 3 26 17 27 19 29
 SMILES IDX 24 31 25 32 26 33 27 34 39 35 28 36 38 37 29 38 34 39 30 40
 SMILES IDX 33 41 31 42 32 43 35 44 37 45 36 46
 H PARENT 21 4 10 15 13 19 7 21 4 24 17 28 19 30 36 47 36 48
 Flexibility Score: inf
  4 active torsions:
  status: ('A' for Active; 'I' for Inactive)
    1  A    between atoms: CA   and  CB  
    2  A    between atoms: CB   and  CG  
    3  A    between atoms: CG   and  CD  
    4  A    between atoms: CD   and  CE  

>  <TORSDO>
F 16

>  <BEGIN_>
RES LYS A 131

$$$$
ligand_0_pose_3_2HRL.pdbqt
 OpenBabel07062320523D

  6  5  0  0  0  0  0  0  0  0999 V2000
   33.1930   34.6630    9.2900 C   0  0  0  0  0  0  0  0  0  0  0  0
   32.0600   35.3600   10.0340 C   0  0  0  0  0  0  0  0  0  0  0  0
   30.6900   34.8700    9.6420 C   0  0  0  0  0  0  0  0  0  0  0  0
   29.6140   35.5860   10.4420 C   0  0  0  0  0  0  0  0  0  0  0  0
   28.8330   34.5990   11.2880 C   0  0  0  0  0  0  0  0  0  0  0  0
   28.6160   35.1260   12.6640 N   0  0  0  0  0  0  0  0  0  0  0  0
  1  2  1  0  0  0  0
  3  2  1  0  0  0  0
  3  4  1  0  0  0  0
  4  5  1  0  0  0  0
  5  6  1  0  0  0  0
M  END
>  <EGIN_R>
ES LYS A 135

>  <REMARK>
  4 active torsions:
  status: ('A' for Active; 'I' for Inactive)
    5  A    between atoms: CA   and  CB  
    6  A    between atoms: CB   and  CG  
    7  A    between atoms: CG   and  CD  
    8  A    between atoms: CD   and  CE  

$$$$
