ligand_38_pose_7_2HRL.pdbqt
 OpenBabel07062320523D

 51 52  0  0  1  0  0  0  0  0999 V2000
   26.9530   35.5640    7.9190 N   0  0  0  0  0  0  0  0  0  0  0  0
   26.2470   36.6150    8.5520 C   0  0  0  0  0  0  0  0  0  0  0  0
   26.0000   37.6980    7.9300 O   0  0  0  0  0  0  0  0  0  0  0  0
   27.1330   34.6950    8.4650 H   0  0  0  0  0  0  0  0  0  0  0  0
   27.3700   35.7760    6.5600 C   0  0  0  0  0  0  0  0  0  0  0  0
   28.7800   36.3820    6.4990 C   0  0  2  0  0  0  0  0  0  0  0  0
   28.7020   37.4830    5.5010 C   0  0  2  0  0  0  0  0  0  0  0  0
   29.2110   38.8220    5.9490 C   0  0  2  0  0  0  0  0  0  0  0  0
   30.7790   39.5950    7.4980 C   0  0  2  0  0  0  0  0  0  0  0  0
   29.9160   40.8330    7.6520 C   0  0  0  0  0  0  0  0  0  0  0  0
   30.0090   38.5440    7.0650 O   0  0  0  0  0  0  0  0  0  0  0  0
   28.4400   40.4770    7.5730 C   0  0  1  0  0  0  0  0  0  0  0  0
   28.1940   39.8720    6.1780 C   0  0  1  0  0  0  0  0  0  0  0  0
   31.1750   39.2530    8.8100 O   0  0  0  0  0  0  0  0  0  0  0  0
   32.0120   38.7520    8.8210 H   0  0  0  0  0  0  0  0  0  0  0  0
   31.9950   39.8480    6.7220 C   0  0  0  0  0  0  0  0  0  0  0  0
   32.0670   40.8460    5.9680 O   0  0  0  0  0  0  0  0  0  0  0  0
   33.1090   39.0220    6.7730 O   0  0  0  0  0  0  0  0  0  0  0  0
   33.4870   38.6550    5.9220 H   0  0  0  0  0  0  0  0  0  0  0  0
   28.0690   39.6260    8.5810 O   0  0  0  0  0  0  0  0  0  0  0  0
   27.0700   39.4880    8.5350 H   0  0  0  0  0  0  0  0  0  0  0  0
   28.3740   41.0090    5.2660 N   0  0  0  0  0  0  0  0  0  0  0  0
   27.7210   41.0590    4.0050 C   0  0  0  0  0  0  0  0  0  0  0  0
   28.9850   41.8220    5.4980 H   0  0  0  0  0  0  0  0  0  0  0  0
   27.9240   42.2350    3.0840 C   0  0  0  0  0  0  0  0  0  0  0  0
   26.9700   40.1490    3.6200 O   0  0  0  0  0  0  0  0  0  0  0  0
   27.3170   37.6860    5.2590 O   0  0  0  0  0  0  0  0  0  0  0  0
   27.2110   37.5290    4.2780 H   0  0  0  0  0  0  0  0  0  0  0  0
   29.6230   35.3350    6.1370 O   0  0  0  0  0  0  0  0  0  0  0  0
   30.0370   35.5540    5.2750 H   0  0  0  0  0  0  0  0  0  0  0  0
   25.7880   36.5410    9.8590 O   0  0  0  0  0  0  0  0  0  0  0  0
   25.5020   37.6770   10.6550 C   0  0  0  0  0  0  0  0  0  0  0  0
   26.4310   37.7760   11.8120 C   0  0  0  0  0  0  0  0  0  0  0  0
   27.6820   38.4030   11.8160 C   0  0  0  0  0  0  0  0  0  0  0  0
   26.2800   37.3040   13.0630 N   0  0  0  0  0  0  0  0  0  0  0  0
   28.2130   38.2820   13.0370 N   0  0  0  0  0  0  0  0  0  0  0  0
   27.3450   37.6140   13.7730 N   0  0  0  0  0  0  0  0  0  0  0  0
   29.4870   38.7670   13.5200 C   0  0  0  0  0  0  0  0  0  0  0  0
   30.5630   37.7970   13.1890 C   0  0  0  0  0  0  0  0  0  0  0  0
   31.3060   37.9230   12.0350 C   0  0  0  0  0  0  0  0  0  0  0  0
   30.8310   36.7560   14.0330 C   0  0  0  0  0  0  0  0  0  0  0  0
   32.3180   37.0120   11.7220 C   0  0  0  0  0  0  0  0  0  0  0  0
   31.8390   35.8410   13.7310 C   0  0  0  0  0  0  0  0  0  0  0  0
   32.5830   35.9720   12.5700 C   0  0  0  0  0  0  0  0  0  0  0  0
   32.1830   34.4080   14.9290 Br  0  0  0  0  0  0  0  0  0  0  0  0
   29.8670   25.5550   16.9770 C   0  0  0  0  0  0  0  0  0  0  0  0
   28.3450   25.7220   17.0260 C   0  0  0  0  0  0  0  0  0  0  0  0
   27.6010   24.4020   16.8960 C   0  0  0  0  0  0  0  0  0  0  0  0
   26.4250   24.3200   17.8290 C   0  0  0  0  0  0  0  0  0  0  0  0
   26.4330   25.5240   18.7650 C   0  0  0  0  0  0  0  0  0  0  0  0
   25.5470   25.2830   19.9280 N   0  0  0  0  0  0  0  0  0  0  0  0
  1  4  1  0  0  0  0
  1  2  1  0  0  0  0
  2 31  1  0  0  0  0
  3  2  2  0  0  0  0
  5  1  1  0  0  0  0
  6  5  1  6  0  0  0
  7 27  1  1  0  0  0
  7  6  1  0  0  0  0
  8  7  1  1  0  0  0
  8 13  1  0  0  0  0
  8 11  1  0  0  0  0
  9 16  1  6  0  0  0
  9 10  1  0  0  0  0
  9 14  1  0  0  0  0
 11  9  1  0  0  0  0
 12 10  1  0  0  0  0
 12 20  1  1  0  0  0
 13 22  1  6  0  0  0
 13 12  1  0  0  0  0
 14 15  1  0  0  0  0
 16 18  1  0  0  0  0
 17 16  2  0  0  0  0
 19 18  1  0  0  0  0
 21 20  1  0  0  0  0
 22 24  1  0  0  0  0
 23 22  1  0  0  0  0
 25 23  1  0  0  0  0
 26 23  2  0  0  0  0
 28 27  1  0  0  0  0
 29  6  1  0  0  0  0
 30 29  1  0  0  0  0
 31 32  1  0  0  0  0
 32 33  1  0  0  0  0
 33 34  2  0  0  0  0
 33 35  1  0  0  0  0
 34 36  1  0  0  0  0
 35 37  2  0  0  0  0
 36 38  1  0  0  0  0
 36 37  1  0  0  0  0
 39 38  1  0  0  0  0
 39 41  2  0  0  0  0
 40 39  1  0  0  0  0
 42 40  2  0  0  0  0
 42 44  1  0  0  0  0
 43 41  1  0  0  0  0
 43 45  1  0  0  0  0
 44 43  2  0  0  0  0
 46 47  1  0  0  0  0
 48 47  1  0  0  0  0
 48 49  1  0  0  0  0
 49 50  1  0  0  0  0
 50 51  1  0  0  0  0
M  END
>  <REMARK>
 VINA RESULT:    -4.724      6.296      9.875
 INTER + INTRA:         -14.747
 INTER:                  -9.467
 INTRA:                  -5.280
 UNBOUND:                -6.295
 SMILES CC(=O)N[C@@H]1[C@@H](O)C[C@](O)(C(=O)O)O[C@H]1C(O)[C@H](O)CNC(=O)OCc1cn(Cc2cccc(Br)c2)nn1
 SMILES IDX 21 1 22 2 23 3 20 5 18 6 16 7 15 8 9 9 8 10 14 11 6 12 5 13
 SMILES IDX 10 14 11 16 12 17 13 18 7 20 4 22 2 23 1 25 3 26 17 27 19 29
 SMILES IDX 24 31 25 32 26 33 27 34 38 35 28 36 37 37 29 38 30 39 31 40
 SMILES IDX 36 41 32 42 34 43 33 44 35 45
 H PARENT 21 4 10 15 13 19 7 21 4 24 17 28 19 30
 Flexibility Score: inf
  4 active torsions:
  status: ('A' for Active; 'I' for Inactive)
    1  A    between atoms: CA   and  CB  
    2  A    between atoms: CB   and  CG  
    3  A    between atoms: CG   and  CD  
    4  A    between atoms: CD   and  CE  

>  <TORSDO>
F 16

>  <BEGIN_>
RES LYS A 131

$$$$
ligand_38_pose_7_2HRL.pdbqt
 OpenBabel07062320523D

  6  5  0  0  0  0  0  0  0  0999 V2000
   33.1930   34.6630    9.2900 C   0  0  0  0  0  0  0  0  0  0  0  0
   32.0600   35.3600   10.0340 C   0  0  0  0  0  0  0  0  0  0  0  0
   30.7070   35.1470    9.4060 C   0  0  0  0  0  0  0  0  0  0  0  0
   29.8380   34.2650   10.2900 C   0  0  0  0  0  0  0  0  0  0  0  0
   28.8330   35.1030   11.0560 C   0  0  0  0  0  0  0  0  0  0  0  0
   28.6530   34.5910   12.4430 N   0  0  0  0  0  0  0  0  0  0  0  0
  1  2  1  0  0  0  0
  3  2  1  0  0  0  0
  3  4  1  0  0  0  0
  4  5  1  0  0  0  0
  5  6  1  0  0  0  0
M  END
>  <EGIN_R>
ES LYS A 135

>  <REMARK>
  4 active torsions:
  status: ('A' for Active; 'I' for Inactive)
    5  A    between atoms: CA   and  CB  
    6  A    between atoms: CB   and  CG  
    7  A    between atoms: CG   and  CD  
    8  A    between atoms: CD   and  CE  

$$$$
