ligand_93_pose_6_2HRL.pdbqt
 OpenBabel07062320523D

 50 51  0  0  1  0  0  0  0  0999 V2000
   28.3870   31.9080   16.7110 C   0  0  0  0  0  0  0  0  0  0  0  0
   29.8910   32.0340   16.7800 C   0  0  2  0  0  0  0  0  0  0  0  0
   30.4140   32.7820   15.6050 C   0  0  1  0  0  0  0  0  0  0  0  0
   30.6570   34.2540   15.8150 C   0  0  2  0  0  0  0  0  0  0  0  0
   29.2080   35.5710   14.5030 C   0  0  2  0  0  0  0  0  0  0  0  0
   30.3830   36.3220   13.9110 C   0  0  0  0  0  0  0  0  0  0  0  0
   29.4740   34.8900   15.6360 O   0  0  0  0  0  0  0  0  0  0  0  0
   31.5160   35.3360   13.7840 C   0  0  1  0  0  0  0  0  0  0  0  0
   31.8500   34.8310   15.1650 C   0  0  1  0  0  0  0  0  0  0  0  0
   28.8090   34.6630   13.5220 O   0  0  0  0  0  0  0  0  0  0  0  0
   28.0330   35.0850   13.0440 H   0  0  0  0  0  0  0  0  0  0  0  0
   28.0990   36.5630   14.6640 C   0  0  0  0  0  0  0  0  0  0  0  0
   27.3820   36.6270   15.6870 O   0  0  0  0  0  0  0  0  0  0  0  0
   27.8590   37.4450   13.6330 O   0  0  0  0  0  0  0  0  0  0  0  0
   28.5980   37.9870   13.1800 H   0  0  0  0  0  0  0  0  0  0  0  0
   31.0740   34.3250   12.9300 O   0  0  0  0  0  0  0  0  0  0  0  0
   31.7280   33.5890   12.8510 H   0  0  0  0  0  0  0  0  0  0  0  0
   32.3270   35.9980   15.9310 N   0  0  0  0  0  0  0  0  0  0  0  0
   33.7060   36.2500   16.1280 C   0  0  0  0  0  0  0  0  0  0  0  0
   31.6420   36.6610   16.3430 H   0  0  0  0  0  0  0  0  0  0  0  0
   34.1040   37.4440   16.9080 C   0  0  0  0  0  0  0  0  0  0  0  0
   34.5900   35.4770   15.6510 O   0  0  0  0  0  0  0  0  0  0  0  0
   31.4550   32.1240   14.9650 O   0  0  0  0  0  0  0  0  0  0  0  0
   31.2180   31.8860   14.0240 H   0  0  0  0  0  0  0  0  0  0  0  0
   30.3790   30.7010   16.8020 O   0  0  0  0  0  0  0  0  0  0  0  0
   31.2820   30.6940   17.2220 H   0  0  0  0  0  0  0  0  0  0  0  0
   27.8180   32.3790   15.4690 N   0  0  0  0  0  0  0  0  0  0  0  0
   26.5580   33.0570   15.5000 C   0  0  0  0  0  0  0  0  0  0  0  0
   28.3400   32.2190   14.5910 H   0  0  0  0  0  0  0  0  0  0  0  0
   26.0000   33.2150   16.5990 O   0  0  0  0  0  0  0  0  0  0  0  0
   26.0350   33.4980   14.2970 O   0  0  0  0  0  0  0  0  0  0  0  0
   24.8470   34.2450   14.3070 C   0  0  0  0  0  0  0  0  0  0  0  0
   24.9990   35.3670   13.3480 C   0  0  0  0  0  0  0  0  0  0  0  0
   25.5180   35.2290   12.0560 C   0  0  0  0  0  0  0  0  0  0  0  0
   24.7030   36.6640   13.4860 N   0  0  0  0  0  0  0  0  0  0  0  0
   25.4870   36.4570   11.5280 N   0  0  0  0  0  0  0  0  0  0  0  0
   24.9970   37.3320   12.3840 N   0  0  0  0  0  0  0  0  0  0  0  0
   25.9220   36.7860   10.2200 C   0  0  0  0  0  0  0  0  0  0  0  0
   27.2070   37.2980   10.0470 C   0  0  0  0  0  0  0  0  0  0  0  0
   25.0770   36.5930    9.1620 C   0  0  0  0  0  0  0  0  0  0  0  0
   27.6390   37.6200    8.7780 C   0  0  0  0  0  0  0  0  0  0  0  0
   25.5290   36.9230    7.8970 C   0  0  0  0  0  0  0  0  0  0  0  0
   23.1290   35.8230    9.3750 I   0  0  0  0  0  0  0  0  0  0  0  0
   26.8000   37.4330    7.7010 C   0  0  0  0  0  0  0  0  0  0  0  0
   29.8670   25.5550   16.9770 C   0  0  0  0  0  0  0  0  0  0  0  0
   28.3450   25.7220   17.0260 C   0  0  0  0  0  0  0  0  0  0  0  0
   27.6010   24.4020   16.8900 C   0  0  0  0  0  0  0  0  0  0  0  0
   26.4540   24.2970   17.8560 C   0  0  0  0  0  0  0  0  0  0  0  0
   26.0790   25.6880   18.3550 C   0  0  0  0  0  0  0  0  0  0  0  0
   24.7720   26.1060   17.7940 N   0  0  0  0  0  0  0  0  0  0  0  0
  2  1  1  6  0  0  0
  2 25  1  0  0  0  0
  3 23  1  1  0  0  0
  3  2  1  0  0  0  0
  4  3  1  6  0  0  0
  5 10  1  6  0  0  0
  5 12  1  0  0  0  0
  5  7  1  0  0  0  0
  6  5  1  0  0  0  0
  7  4  1  0  0  0  0
  8 16  1  6  0  0  0
  8  6  1  0  0  0  0
  8  9  1  0  0  0  0
  9  4  1  0  0  0  0
  9 18  1  1  0  0  0
 11 10  1  0  0  0  0
 12 13  2  0  0  0  0
 14 12  1  0  0  0  0
 15 14  1  0  0  0  0
 17 16  1  0  0  0  0
 18 19  1  0  0  0  0
 18 20  1  0  0  0  0
 19 21  1  0  0  0  0
 22 19  2  0  0  0  0
 24 23  1  0  0  0  0
 25 26  1  0  0  0  0
 27 28  1  0  0  0  0
 27  1  1  0  0  0  0
 28 30  2  0  0  0  0
 29 27  1  0  0  0  0
 31 32  1  0  0  0  0
 31 28  1  0  0  0  0
 33 35  1  0  0  0  0
 33 32  1  0  0  0  0
 34 33  2  0  0  0  0
 36 34  1  0  0  0  0
 36 37  1  0  0  0  0
 37 35  2  0  0  0  0
 38 36  1  0  0  0  0
 39 38  1  0  0  0  0
 40 43  1  0  0  0  0
 40 38  2  0  0  0  0
 41 39  2  0  0  0  0
 42 40  1  0  0  0  0
 44 42  2  0  0  0  0
 44 41  1  0  0  0  0
 45 46  1  0  0  0  0
 47 46  1  0  0  0  0
 47 48  1  0  0  0  0
 48 49  1  0  0  0  0
 50 49  1  0  0  0  0
M  END
>  <REMARK>
 VINA RESULT:    -4.568      3.044      5.582
 INTER + INTRA:         -14.191
 INTER:                  -7.917
 INTRA:                  -6.274
 UNBOUND:                -6.285
 SMILES CC(=O)N[C@@H]1[C@@H](O)C[C@](O)(C(=O)O)O[C@H]1C(O)[C@H](O)CNC(=O)OCc1cn(-c2ccccc2I)nn1
 SMILES IDX 20 1 18 2 16 3 15 4 9 5 8 6 14 7 6 8 5 9 10 10 11 12 12 13
 SMILES IDX 13 14 7 16 4 18 2 19 1 21 3 22 17 23 19 25 21 27 22 28 23 30
 SMILES IDX 24 31 25 32 26 33 27 34 37 35 28 36 36 37 29 38 30 39 34 40
 SMILES IDX 31 41 33 42 35 43 32 44
 H PARENT 10 11 13 15 7 17 4 20 17 24 19 26 21 29
 Flexibility Score: inf
  4 active torsions:
  status: ('A' for Active; 'I' for Inactive)
    1  A    between atoms: CA   and  CB  
    2  A    between atoms: CB   and  CG  
    3  A    between atoms: CG   and  CD  
    4  A    between atoms: CD   and  CE  

>  <TORSDO>
F 15

>  <BEGIN_>
RES LYS A 131

$$$$
ligand_93_pose_6_2HRL.pdbqt
 OpenBabel07062320523D

  6  5  0  0  0  0  0  0  0  0999 V2000
   33.1930   34.6630    9.2900 C   0  0  0  0  0  0  0  0  0  0  0  0
   32.0600   35.3600   10.0340 C   0  0  0  0  0  0  0  0  0  0  0  0
   30.7900   35.4710    9.2310 C   0  0  0  0  0  0  0  0  0  0  0  0
   30.1900   34.0950    8.9830 C   0  0  0  0  0  0  0  0  0  0  0  0
   28.7260   34.2130    8.6030 C   0  0  0  0  0  0  0  0  0  0  0  0
   27.8480   33.6890    9.6850 N   0  0  0  0  0  0  0  0  0  0  0  0
  1  2  1  0  0  0  0
  3  2  1  0  0  0  0
  4  3  1  0  0  0  0
  5  4  1  0  0  0  0
  5  6  1  0  0  0  0
M  END
>  <EGIN_R>
ES LYS A 135

>  <REMARK>
  4 active torsions:
  status: ('A' for Active; 'I' for Inactive)
    5  A    between atoms: CA   and  CB  
    6  A    between atoms: CB   and  CG  
    7  A    between atoms: CG   and  CD  
    8  A    between atoms: CD   and  CE  

$$$$
