ligand_44_pose_16_2HRL.pdbqt
 OpenBabel07062320523D

 51 52  0  0  1  0  0  0  0  0999 V2000
   27.9780   39.9660   11.4830 N   0  0  0  0  0  0  0  0  0  0  0  0
   29.3180   40.0100   11.9390 C   0  0  0  0  0  0  0  0  0  0  0  0
   30.1400   40.9170   11.7070 O   0  0  0  0  0  0  0  0  0  0  0  0
   27.3580   39.1370   11.7490 H   0  0  0  0  0  0  0  0  0  0  0  0
   27.4600   41.0240   10.6740 C   0  0  0  0  0  0  0  0  0  0  0  0
   27.1840   40.6520    9.2400 C   0  0  2  0  0  0  0  0  0  0  0  0
   28.3500   40.0450    8.5480 C   0  0  1  0  0  0  0  0  0  0  0  0
   28.1370   39.3670    7.2530 C   0  0  2  0  0  0  0  0  0  0  0  0
   26.8250   37.4870    7.5070 C   0  0  2  0  0  0  0  0  0  0  0  0
   27.1740   36.9090    6.1550 C   0  0  0  0  0  0  0  0  0  0  0  0
   26.8290   38.8600    7.3190 O   0  0  0  0  0  0  0  0  0  0  0  0
   28.5760   37.3230    5.8640 C   0  0  1  0  0  0  0  0  0  0  0  0
   29.1300   38.4120    6.7620 C   0  0  1  0  0  0  0  0  0  0  0  0
   27.7540   37.0240    8.4120 O   0  0  0  0  0  0  0  0  0  0  0  0
   28.6840   37.1500    8.1440 H   0  0  0  0  0  0  0  0  0  0  0  0
   25.4440   37.0580    7.8340 C   0  0  0  0  0  0  0  0  0  0  0  0
   25.1850   36.1660    8.6720 O   0  0  0  0  0  0  0  0  0  0  0  0
   24.4070   37.6940    7.1590 O   0  0  0  0  0  0  0  0  0  0  0  0
   23.4370   37.4510    7.2840 H   0  0  0  0  0  0  0  0  0  0  0  0
   29.3900   36.1850    6.0730 O   0  0  0  0  0  0  0  0  0  0  0  0
   29.3350   35.5550    5.3270 H   0  0  0  0  0  0  0  0  0  0  0  0
   30.1190   39.0650    5.8750 N   0  0  0  0  0  0  0  0  0  0  0  0
   31.3690   39.5130    6.3170 C   0  0  0  0  0  0  0  0  0  0  0  0
   29.8020   39.1660    4.8810 H   0  0  0  0  0  0  0  0  0  0  0  0
   32.2930   40.1670    5.3440 C   0  0  0  0  0  0  0  0  0  0  0  0
   31.7120   39.3700    7.5000 O   0  0  0  0  0  0  0  0  0  0  0  0
   29.4330   40.9080    8.6270 O   0  0  0  0  0  0  0  0  0  0  0  0
   29.1040   41.8470    8.7210 H   0  0  0  0  0  0  0  0  0  0  0  0
   26.5230   41.6230    8.5070 O   0  0  0  0  0  0  0  0  0  0  0  0
   26.1690   42.3540    9.0520 H   0  0  0  0  0  0  0  0  0  0  0  0
   29.7770   38.9510   12.7230 O   0  0  0  0  0  0  0  0  0  0  0  0
   29.9790   37.6700   12.1780 C   0  0  0  0  0  0  0  0  0  0  0  0
   31.0850   36.9570   12.8410 C   0  0  0  0  0  0  0  0  0  0  0  0
   31.3700   36.7750   14.1740 C   0  0  0  0  0  0  0  0  0  0  0  0
   32.0590   36.3330   12.1390 N   0  0  0  0  0  0  0  0  0  0  0  0
   32.5080   36.0460   14.2400 N   0  0  0  0  0  0  0  0  0  0  0  0
   32.8870   35.8020   12.9990 N   0  0  0  0  0  0  0  0  0  0  0  0
   33.1560   35.6310   15.4670 C   0  0  0  0  0  0  0  0  0  0  0  0
   32.3230   34.5360   16.0650 C   0  0  0  0  0  0  0  0  0  0  0  0
   31.9270   34.6370   17.3910 C   0  0  0  0  0  0  0  0  0  0  0  0
   31.9630   33.4530   15.2930 C   0  0  0  0  0  0  0  0  0  0  0  0
   31.1660   33.6250   17.9170 C   0  0  0  0  0  0  0  0  0  0  0  0
   31.1890   32.4230   15.8270 C   0  0  0  0  0  0  0  0  0  0  0  0
   30.8110   32.5460   17.1400 C   0  0  0  0  0  0  0  0  0  0  0  0
   29.7480   31.1500   17.9010 Br  0  0  0  0  0  0  0  0  0  0  0  0
   29.8670   25.5550   16.9770 C   0  0  0  0  0  0  0  0  0  0  0  0
   28.3450   25.7220   17.0260 C   0  0  0  0  0  0  0  0  0  0  0  0
   27.6010   24.4060   16.8580 C   0  0  0  0  0  0  0  0  0  0  0  0
   26.1620   24.5120   17.2820 C   0  0  0  0  0  0  0  0  0  0  0  0
   25.9720   23.8070   18.6200 C   0  0  0  0  0  0  0  0  0  0  0  0
   25.5870   24.7800   19.6700 N   0  0  0  0  0  0  0  0  0  0  0  0
  1  4  1  0  0  0  0
  1  2  1  0  0  0  0
  2 31  1  0  0  0  0
  3  2  2  0  0  0  0
  5  1  1  0  0  0  0
  6  5  1  1  0  0  0
  7 27  1  6  0  0  0
  7  6  1  0  0  0  0
  8 11  1  0  0  0  0
  8  7  1  1  0  0  0
  9 16  1  1  0  0  0
  9 14  1  0  0  0  0
 10  9  1  0  0  0  0
 11  9  1  0  0  0  0
 12 20  1  1  0  0  0
 12 10  1  0  0  0  0
 12 13  1  0  0  0  0
 13 22  1  6  0  0  0
 13  8  1  0  0  0  0
 15 14  1  0  0  0  0
 16 17  2  0  0  0  0
 18 19  1  0  0  0  0
 18 16  1  0  0  0  0
 21 20  1  0  0  0  0
 22 23  1  0  0  0  0
 23 26  2  0  0  0  0
 24 22  1  0  0  0  0
 25 23  1  0  0  0  0
 27 28  1  0  0  0  0
 29 30  1  0  0  0  0
 29  6  1  0  0  0  0
 32 31  1  0  0  0  0
 32 33  1  0  0  0  0
 33 34  2  0  0  0  0
 34 36  1  0  0  0  0
 35 33  1  0  0  0  0
 35 37  2  0  0  0  0
 36 38  1  0  0  0  0
 37 36  1  0  0  0  0
 38 39  1  0  0  0  0
 39 40  2  0  0  0  0
 40 42  1  0  0  0  0
 41 43  2  0  0  0  0
 41 39  1  0  0  0  0
 43 44  1  0  0  0  0
 44 45  1  0  0  0  0
 44 42  2  0  0  0  0
 46 47  1  0  0  0  0
 48 47  1  0  0  0  0
 48 49  1  0  0  0  0
 49 50  1  0  0  0  0
 50 51  1  0  0  0  0
M  END
>  <REMARK>
 VINA RESULT:    -4.438      5.448      8.935
 INTER + INTRA:         -14.338
 INTER:                  -9.308
 INTRA:                  -5.030
 UNBOUND:                -6.398
 SMILES CC(=O)N[C@@H]1[C@@H](O)C[C@](O)(C(=O)O)O[C@H]1C(O)[C@H](O)CNC(=O)OCc1cn(Cc2ccc(Br)cc2)nn1
 SMILES IDX 21 1 22 2 23 3 20 5 18 6 16 7 15 8 9 9 8 10 14 11 6 12 5 13
 SMILES IDX 10 14 11 16 12 17 13 18 7 20 4 22 2 23 1 25 3 26 17 27 19 29
 SMILES IDX 24 31 25 32 26 33 27 34 38 35 28 36 37 37 29 38 30 39 31 40
 SMILES IDX 36 41 32 42 35 43 33 44 34 45
 H PARENT 21 4 10 15 13 19 7 21 4 24 17 28 19 30
 Flexibility Score: inf
  4 active torsions:
  status: ('A' for Active; 'I' for Inactive)
    1  A    between atoms: CA   and  CB  
    2  A    between atoms: CB   and  CG  
    3  A    between atoms: CG   and  CD  
    4  A    between atoms: CD   and  CE  

>  <TORSDO>
F 16

>  <BEGIN_>
RES LYS A 131

$$$$
ligand_44_pose_16_2HRL.pdbqt
 OpenBabel07062320523D

  6  5  0  0  0  0  0  0  0  0999 V2000
   33.1930   34.6630    9.2900 C   0  0  0  0  0  0  0  0  0  0  0  0
   32.0600   35.3600   10.0340 C   0  0  0  0  0  0  0  0  0  0  0  0
   30.7980   35.4940    9.2210 C   0  0  0  0  0  0  0  0  0  0  0  0
   30.0270   34.1830    9.2080 C   0  0  0  0  0  0  0  0  0  0  0  0
   28.8350   34.2570   10.1430 C   0  0  0  0  0  0  0  0  0  0  0  0
   27.5960   33.7770    9.4720 N   0  0  0  0  0  0  0  0  0  0  0  0
  1  2  1  0  0  0  0
  3  2  1  0  0  0  0
  4  3  1  0  0  0  0
  4  5  1  0  0  0  0
  6  5  1  0  0  0  0
M  END
>  <EGIN_R>
ES LYS A 135

>  <REMARK>
  4 active torsions:
  status: ('A' for Active; 'I' for Inactive)
    5  A    between atoms: CA   and  CB  
    6  A    between atoms: CB   and  CG  
    7  A    between atoms: CG   and  CD  
    8  A    between atoms: CD   and  CE  

$$$$
