ligand_3_pose_7_2HRL.pdbqt
 OpenBabel07062320523D

 49 50  0  0  1  0  0  0  0  0999 V2000
   30.1290   31.1630   18.8080 C   0  0  0  0  0  0  0  0  0  0  0  0
   30.5320   31.7030   17.4510 C   0  0  2  0  0  0  0  0  0  0  0  0
   29.7950   32.9790   17.1120 C   0  0  1  0  0  0  0  0  0  0  0  0
   29.8150   33.2870   15.6510 C   0  0  2  0  0  0  0  0  0  0  0  0
   31.6810   34.6440   15.2140 C   0  0  2  0  0  0  0  0  0  0  0  0
   30.8780   35.8960   15.2260 C   0  0  0  0  0  0  0  0  0  0  0  0
   31.0280   33.4760   15.1030 O   0  0  0  0  0  0  0  0  0  0  0  0
   29.4470   35.7240   15.6400 C   0  0  1  0  0  0  0  0  0  0  0  0
   28.8790   34.3940   15.2600 C   0  0  1  0  0  0  0  0  0  0  0  0
   32.4090   34.6250   16.4230 O   0  0  0  0  0  0  0  0  0  0  0  0
   31.8690   34.0970   17.0760 H   0  0  0  0  0  0  0  0  0  0  0  0
   32.7080   34.7130   14.1380 C   0  0  0  0  0  0  0  0  0  0  0  0
   33.9350   34.6840   14.3750 O   0  0  0  0  0  0  0  0  0  0  0  0
   32.3120   34.8120   12.8230 O   0  0  0  0  0  0  0  0  0  0  0  0
   31.4250   34.4790   12.4650 H   0  0  0  0  0  0  0  0  0  0  0  0
   29.3160   35.9210   17.0260 O   0  0  0  0  0  0  0  0  0  0  0  0
   28.9440   35.1400   17.4810 H   0  0  0  0  0  0  0  0  0  0  0  0
   28.7660   34.3670   13.7990 N   0  0  0  0  0  0  0  0  0  0  0  0
   27.5710   34.7600   13.1350 C   0  0  0  0  0  0  0  0  0  0  0  0
   29.5610   34.0580   13.2020 H   0  0  0  0  0  0  0  0  0  0  0  0
   27.4360   34.7400   11.6550 C   0  0  0  0  0  0  0  0  0  0  0  0
   26.5660   35.1470   13.7920 O   0  0  0  0  0  0  0  0  0  0  0  0
   28.4810   32.7780   17.5660 O   0  0  0  0  0  0  0  0  0  0  0  0
   27.9530   32.5860   16.7340 H   0  0  0  0  0  0  0  0  0  0  0  0
   30.4380   30.7310   16.4700 O   0  0  0  0  0  0  0  0  0  0  0  0
   31.2670   30.2270   16.3440 H   0  0  0  0  0  0  0  0  0  0  0  0
   29.2510   30.0370   18.7410 N   0  0  0  0  0  0  0  0  0  0  0  0
   27.9120   30.0520   19.2170 C   0  0  0  0  0  0  0  0  0  0  0  0
   29.5810   29.1360   18.3220 H   0  0  0  0  0  0  0  0  0  0  0  0
   27.4220   31.0660   19.7290 O   0  0  0  0  0  0  0  0  0  0  0  0
   27.1010   28.9270   19.1280 O   0  0  0  0  0  0  0  0  0  0  0  0
   27.0170   28.2080   17.9070 C   0  0  0  0  0  0  0  0  0  0  0  0
   26.7120   29.1860   16.8390 C   0  0  0  0  0  0  0  0  0  0  0  0
   25.4930   29.4140   16.2410 C   0  0  0  0  0  0  0  0  0  0  0  0
   27.5980   30.0280   16.2690 N   0  0  0  0  0  0  0  0  0  0  0  0
   25.6970   30.3840   15.3350 N   0  0  0  0  0  0  0  0  0  0  0  0
   26.9630   30.7430   15.3630 N   0  0  0  0  0  0  0  0  0  0  0  0
   24.6910   30.9270   14.4870 C   0  0  0  0  0  0  0  0  0  0  0  0
   24.0720   30.1070   13.5610 C   0  0  0  0  0  0  0  0  0  0  0  0
   24.3320   32.2590   14.5820 C   0  0  0  0  0  0  0  0  0  0  0  0
   23.0990   30.6670   12.7530 C   0  0  0  0  0  0  0  0  0  0  0  0
   23.3650   32.7980   13.7720 C   0  0  0  0  0  0  0  0  0  0  0  0
   22.7440   31.9860   12.8480 C   0  0  0  0  0  0  0  0  0  0  0  0
   29.8670   25.5550   16.9770 C   0  0  0  0  0  0  0  0  0  0  0  0
   28.3450   25.7220   17.0260 C   0  0  0  0  0  0  0  0  0  0  0  0
   27.6010   24.4050   16.8680 C   0  0  0  0  0  0  0  0  0  0  0  0
   26.6380   24.1600   17.9960 C   0  0  0  0  0  0  0  0  0  0  0  0
   25.2830   23.7480   17.4280 C   0  0  0  0  0  0  0  0  0  0  0  0
   24.4970   24.9440   17.0420 N   0  0  0  0  0  0  0  0  0  0  0  0
  2  1  1  1  0  0  0
  3  2  1  0  0  0  0
  3 23  1  6  0  0  0
  4  3  1  1  0  0  0
  5 12  1  6  0  0  0
  5  6  1  0  0  0  0
  5 10  1  0  0  0  0
  6  8  1  0  0  0  0
  7  5  1  0  0  0  0
  7  4  1  0  0  0  0
  8 16  1  1  0  0  0
  9 18  1  6  0  0  0
  9  8  1  0  0  0  0
  9  4  1  0  0  0  0
 10 11  1  0  0  0  0
 12 13  2  0  0  0  0
 14 12  1  0  0  0  0
 15 14  1  0  0  0  0
 16 17  1  0  0  0  0
 19 22  2  0  0  0  0
 19 18  1  0  0  0  0
 20 18  1  0  0  0  0
 21 19  1  0  0  0  0
 24 23  1  0  0  0  0
 25  2  1  0  0  0  0
 26 25  1  0  0  0  0
 27  1  1  0  0  0  0
 27 28  1  0  0  0  0
 28 30  2  0  0  0  0
 29 27  1  0  0  0  0
 31 28  1  0  0  0  0
 32 31  1  0  0  0  0
 33 32  1  0  0  0  0
 34 33  2  0  0  0  0
 35 33  1  0  0  0  0
 36 37  1  0  0  0  0
 36 34  1  0  0  0  0
 37 35  2  0  0  0  0
 38 40  1  0  0  0  0
 38 36  1  0  0  0  0
 39 38  2  0  0  0  0
 41 43  2  0  0  0  0
 41 39  1  0  0  0  0
 42 40  2  0  0  0  0
 43 42  1  0  0  0  0
 44 45  1  0  0  0  0
 46 45  1  0  0  0  0
 46 47  1  0  0  0  0
 48 47  1  0  0  0  0
 49 48  1  0  0  0  0
M  END
>  <REMARK>
 VINA RESULT:    -5.696      6.268     10.436
 INTER + INTRA:         -14.344
 INTER:                  -8.293
 INTRA:                  -6.051
 UNBOUND:                -4.485
 SMILES CC(=O)N[C@@H]1[C@@H](O)C[C@](O)(C(=O)O)O[C@H]1C(O)[C@H](O)CNC(=O)OCc1cn(-c2ccccc2)nn1
 SMILES IDX 20 1 18 2 16 3 15 4 9 5 8 6 14 7 6 8 5 9 10 10 11 12 12 13
 SMILES IDX 13 14 7 16 4 18 2 19 1 21 3 22 17 23 19 25 21 27 22 28 23 30
 SMILES IDX 24 31 25 32 26 33 27 34 36 35 28 36 35 37 29 38 30 39 34 40
 SMILES IDX 31 41 33 42 32 43
 H PARENT 10 11 13 15 7 17 4 20 17 24 19 26 21 29
 Flexibility Score: inf
  4 active torsions:
  status: ('A' for Active; 'I' for Inactive)
    1  A    between atoms: CA   and  CB  
    2  A    between atoms: CB   and  CG  
    3  A    between atoms: CG   and  CD  
    4  A    between atoms: CD   and  CE  

>  <TORSDO>
F 15

>  <BEGIN_>
RES LYS A 131

$$$$
ligand_3_pose_7_2HRL.pdbqt
 OpenBabel07062320523D

  6  5  0  0  0  0  0  0  0  0999 V2000
   33.1930   34.6630    9.2900 C   0  0  0  0  0  0  0  0  0  0  0  0
   32.0600   35.3600   10.0340 C   0  0  0  0  0  0  0  0  0  0  0  0
   30.6960   34.8070    9.7090 C   0  0  0  0  0  0  0  0  0  0  0  0
   30.6030   34.4390    8.2370 C   0  0  0  0  0  0  0  0  0  0  0  0
   29.3570   35.0390    7.6150 C   0  0  0  0  0  0  0  0  0  0  0  0
   28.1260   34.5240    8.2760 N   0  0  0  0  0  0  0  0  0  0  0  0
  1  2  1  0  0  0  0
  3  2  1  0  0  0  0
  4  3  1  0  0  0  0
  5  4  1  0  0  0  0
  5  6  1  0  0  0  0
M  END
>  <EGIN_R>
ES LYS A 135

>  <REMARK>
  4 active torsions:
  status: ('A' for Active; 'I' for Inactive)
    5  A    between atoms: CA   and  CB  
    6  A    between atoms: CB   and  CG  
    7  A    between atoms: CG   and  CD  
    8  A    between atoms: CD   and  CE  

$$$$
