ligand_70_pose_9_2HRL.pdbqt
 OpenBabel07062320523D

 53 55  0  0  1  0  0  0  0  0999 V2000
   25.7980   38.4610   10.2990 C   0  0  0  0  0  0  0  0  0  0  0  0
   25.2550   37.3550    9.4400 C   0  0  2  0  0  0  0  0  0  0  0  0
   25.4060   37.6000    7.9630 C   0  0  1  0  0  0  0  0  0  0  0  0
   26.5430   36.8590    7.3230 C   0  0  2  0  0  0  0  0  0  0  0  0
   28.4650   35.7610    8.0180 C   0  0  2  0  0  0  0  0  0  0  0  0
   28.8810   35.6270    6.5740 C   0  0  0  0  0  0  0  0  0  0  0  0
   27.1120   35.9240    8.1770 O   0  0  0  0  0  0  0  0  0  0  0  0
   28.4070   36.7980    5.7800 C   0  0  1  0  0  0  0  0  0  0  0  0
   27.5270   37.7380    6.6320 C   0  0  1  0  0  0  0  0  0  0  0  0
   29.2300   36.7740    8.5900 O   0  0  0  0  0  0  0  0  0  0  0  0
   29.2620   36.7300    9.5640 H   0  0  0  0  0  0  0  0  0  0  0  0
   28.8470   34.4900    8.7040 C   0  0  0  0  0  0  0  0  0  0  0  0
   30.0480   34.1260    8.6400 O   0  0  0  0  0  0  0  0  0  0  0  0
   27.9360   33.7130    9.3940 O   0  0  0  0  0  0  0  0  0  0  0  0
   27.6790   33.9630   10.3540 H   0  0  0  0  0  0  0  0  0  0  0  0
   29.4940   37.5260    5.2640 O   0  0  0  0  0  0  0  0  0  0  0  0
   29.5980   38.3700    5.7660 H   0  0  0  0  0  0  0  0  0  0  0  0
   26.7860   38.6100    5.7140 N   0  0  0  0  0  0  0  0  0  0  0  0
   26.8090   40.0260    5.7990 C   0  0  0  0  0  0  0  0  0  0  0  0
   26.2110   38.1910    4.9610 H   0  0  0  0  0  0  0  0  0  0  0  0
   26.0470   40.8930    4.8610 C   0  0  0  0  0  0  0  0  0  0  0  0
   27.4880   40.5980    6.6880 O   0  0  0  0  0  0  0  0  0  0  0  0
   24.1770   37.2560    7.3660 O   0  0  0  0  0  0  0  0  0  0  0  0
   24.3960   36.8680    6.4830 H   0  0  0  0  0  0  0  0  0  0  0  0
   23.9120   37.0800    9.7700 O   0  0  0  0  0  0  0  0  0  0  0  0
   23.4650   36.9400    8.8760 H   0  0  0  0  0  0  0  0  0  0  0  0
   27.2410   38.4450   10.2500 N   0  0  0  0  0  0  0  0  0  0  0  0
   28.0540   38.3790   11.4000 C   0  0  0  0  0  0  0  0  0  0  0  0
   27.7600   38.4820    9.3290 H   0  0  0  0  0  0  0  0  0  0  0  0
   27.5650   38.3310   12.5480 O   0  0  0  0  0  0  0  0  0  0  0  0
   29.4530   38.3630   11.3310 O   0  0  0  0  0  0  0  0  0  0  0  0
   30.1720   39.5780   11.0690 C   0  0  0  0  0  0  0  0  0  0  0  0
   30.6920   39.5780    9.6860 C   0  0  0  0  0  0  0  0  0  0  0  0
   31.9840   39.6740    9.2720 C   0  0  0  0  0  0  0  0  0  0  0  0
   29.9280   39.4800    8.5920 N   0  0  0  0  0  0  0  0  0  0  0  0
   31.9500   39.6290    7.9080 N   0  0  0  0  0  0  0  0  0  0  0  0
   30.7010   39.5120    7.5200 N   0  0  0  0  0  0  0  0  0  0  0  0
   33.0680   39.6970    7.0450 C   0  0  0  0  0  0  0  0  0  0  0  0
   32.8590   39.8030    5.6810 C   0  0  0  0  0  0  0  0  0  0  0  0
   34.3360   39.6570    7.5780 C   0  0  0  0  0  0  0  0  0  0  0  0
   33.9210   39.8660    4.8620 N   0  0  0  0  0  0  0  0  0  0  0  0
   35.4230   39.7240    6.7120 C   0  0  0  0  0  0  0  0  0  0  0  0
   35.1900   39.8290    5.3570 C   0  0  0  0  0  0  0  0  0  0  0  0
   36.6890   39.6860    7.2130 C   0  0  0  0  0  0  0  0  0  0  0  0
   36.2660   39.8960    4.4960 C   0  0  0  0  0  0  0  0  0  0  0  0
   37.7820   39.7540    6.3490 C   0  0  0  0  0  0  0  0  0  0  0  0
   37.5630   39.8590    4.9970 C   0  0  0  0  0  0  0  0  0  0  0  0
   29.8670   25.5550   16.9770 C   0  0  0  0  0  0  0  0  0  0  0  0
   28.3450   25.7220   17.0260 C   0  0  0  0  0  0  0  0  0  0  0  0
   27.5990   24.4780   16.5700 C   0  0  0  0  0  0  0  0  0  0  0  0
   26.9990   23.7220   17.7230 C   0  0  0  0  0  0  0  0  0  0  0  0
   26.1980   24.6810   18.5980 C   0  0  0  0  0  0  0  0  0  0  0  0
   24.8920   24.9890   17.9700 N   0  0  0  0  0  0  0  0  0  0  0  0
  2 25  1  0  0  0  0
  2  1  1  1  0  0  0
  3 23  1  6  0  0  0
  3  2  1  0  0  0  0
  4  3  1  1  0  0  0
  4  7  1  0  0  0  0
  5  7  1  0  0  0  0
  5 10  1  1  0  0  0
  5 12  1  0  0  0  0
  6  5  1  0  0  0  0
  8 16  1  1  0  0  0
  8  6  1  0  0  0  0
  8  9  1  0  0  0  0
  9 18  1  6  0  0  0
  9  4  1  0  0  0  0
 10 11  1  0  0  0  0
 12 14  1  0  0  0  0
 13 12  2  0  0  0  0
 14 15  1  0  0  0  0
 16 17  1  0  0  0  0
 18 19  1  0  0  0  0
 19 22  2  0  0  0  0
 20 18  1  0  0  0  0
 21 19  1  0  0  0  0
 24 23  1  0  0  0  0
 26 25  1  0  0  0  0
 27  1  1  0  0  0  0
 27 28  1  0  0  0  0
 28 30  2  0  0  0  0
 29 27  1  0  0  0  0
 31 28  1  0  0  0  0
 32 31  1  0  0  0  0
 33 32  1  0  0  0  0
 34 33  2  0  0  0  0
 35 33  1  0  0  0  0
 36 34  1  0  0  0  0
 37 36  1  0  0  0  0
 37 35  2  0  0  0  0
 38 40  1  0  0  0  0
 38 36  1  0  0  0  0
 39 38  2  0  0  0  0
 41 43  2  0  0  0  0
 41 39  1  0  0  0  0
 42 44  1  0  0  0  0
 42 40  2  0  0  0  0
 43 42  1  0  0  0  0
 45 47  2  0  0  0  0
 45 43  1  0  0  0  0
 46 44  2  0  0  0  0
 47 46  1  0  0  0  0
 48 49  1  0  0  0  0
 50 49  1  0  0  0  0
 50 51  1  0  0  0  0
 51 52  1  0  0  0  0
 53 52  1  0  0  0  0
M  END
>  <REMARK>
 VINA RESULT:    -6.010      8.522     14.052
 INTER + INTRA:         -14.934
 INTER:                  -9.802
 INTRA:                  -5.132
 UNBOUND:                -4.533
 SMILES CC(=O)N[C@@H]1[C@@H](O)C[C@](O)(C(=O)O)O[C@H]1C(O)[C@H](O)CNC(=O)OCc1cn(-c2cnc3ccccc3c2)nn1
 SMILES IDX 20 1 18 2 16 3 15 4 9 5 8 6 14 7 6 8 5 9 10 10 11 12 12 13
 SMILES IDX 13 14 7 16 4 18 2 19 1 21 3 22 17 23 19 25 21 27 22 28 23 30
 SMILES IDX 24 31 25 32 26 33 27 34 40 35 28 36 39 37 29 38 30 39 38 40
 SMILES IDX 31 41 37 42 32 43 36 44 33 45 35 46 34 47
 H PARENT 10 11 13 15 7 17 4 20 17 24 19 26 21 29
 Flexibility Score: inf
  4 active torsions:
  status: ('A' for Active; 'I' for Inactive)
    1  A    between atoms: CA   and  CB  
    2  A    between atoms: CB   and  CG  
    3  A    between atoms: CG   and  CD  
    4  A    between atoms: CD   and  CE  

>  <TORSDO>
F 15

>  <BEGIN_>
RES LYS A 131

$$$$
ligand_70_pose_9_2HRL.pdbqt
 OpenBabel07062320523D

  6  5  0  0  0  0  0  0  0  0999 V2000
   33.1930   34.6630    9.2900 C   0  0  0  0  0  0  0  0  0  0  0  0
   32.0600   35.3600   10.0340 C   0  0  0  0  0  0  0  0  0  0  0  0
   32.5260   36.1860   11.2050 C   0  0  0  0  0  0  0  0  0  0  0  0
   31.7410   35.8320   12.4580 C   0  0  0  0  0  0  0  0  0  0  0  0
   30.7460   34.7240   12.1680 C   0  0  0  0  0  0  0  0  0  0  0  0
   29.3530   35.1650   12.4540 N   0  0  0  0  0  0  0  0  0  0  0  0
  1  2  1  0  0  0  0
  2  3  1  0  0  0  0
  3  4  1  0  0  0  0
  5  6  1  0  0  0  0
  5  4  1  0  0  0  0
M  END
>  <EGIN_R>
ES LYS A 135

>  <REMARK>
  4 active torsions:
  status: ('A' for Active; 'I' for Inactive)
    5  A    between atoms: CA   and  CB  
    6  A    between atoms: CB   and  CG  
    7  A    between atoms: CG   and  CD  
    8  A    between atoms: CD   and  CE  

$$$$
