ligand_28_pose_10_2HRL.pdbqt
 OpenBabel07062320523D

 53 55  0  0  1  0  0  0  0  0999 V2000
   30.3400   32.2560   14.9510 N   0  0  0  0  0  0  0  0  0  0  0  0
   30.7760   33.5920   14.7270 C   0  0  0  0  0  0  0  0  0  0  0  0
   31.5150   34.1640   15.5930 O   0  0  0  0  0  0  0  0  0  0  0  0
   29.7440   31.8190   14.2330 H   0  0  0  0  0  0  0  0  0  0  0  0
   30.7680   31.6150   16.1680 C   0  0  0  0  0  0  0  0  0  0  0  0
   29.6410   31.0800   16.9930 C   0  0  2  0  0  0  0  0  0  0  0  0
   28.3500   30.9640   16.2130 C   0  0  2  0  0  0  0  0  0  0  0  0
   27.1980   30.5780   17.1360 C   0  0  2  0  0  0  0  0  0  0  0  0
   27.0360   28.4220   17.9780 C   0  0  2  0  0  0  0  0  0  0  0  0
   25.5270   28.3980   17.9080 C   0  0  0  0  0  0  0  0  0  0  0  0
   27.5720   29.6730   18.0850 O   0  0  0  0  0  0  0  0  0  0  0  0
   24.9620   29.6900   17.3530 C   0  0  1  0  0  0  0  0  0  0  0  0
   25.9670   30.2100   16.3510 C   0  0  1  0  0  0  0  0  0  0  0  0
   27.5920   27.7210   16.8910 O   0  0  0  0  0  0  0  0  0  0  0  0
   28.4500   28.0860   16.6090 H   0  0  0  0  0  0  0  0  0  0  0  0
   27.4190   27.6560   19.1960 C   0  0  0  0  0  0  0  0  0  0  0  0
   26.5280   27.2390   19.9960 O   0  0  0  0  0  0  0  0  0  0  0  0
   28.7290   27.3550   19.5300 O   0  0  0  0  0  0  0  0  0  0  0  0
   28.9100   27.0090   20.4770 H   0  0  0  0  0  0  0  0  0  0  0  0
   23.7010   29.5000   16.7970 O   0  0  0  0  0  0  0  0  0  0  0  0
   23.8280   29.0770   15.9130 H   0  0  0  0  0  0  0  0  0  0  0  0
   25.5070   31.3190   15.5960 N   0  0  0  0  0  0  0  0  0  0  0  0
   24.8510   31.1720   14.3460 C   0  0  0  0  0  0  0  0  0  0  0  0
   25.6720   32.2870   16.0030 H   0  0  0  0  0  0  0  0  0  0  0  0
   24.3760   32.3660   13.5740 C   0  0  0  0  0  0  0  0  0  0  0  0
   24.6920   29.9970   13.9280 O   0  0  0  0  0  0  0  0  0  0  0  0
   28.5020   29.9240   15.2970 O   0  0  0  0  0  0  0  0  0  0  0  0
   27.6150   29.6250   14.9800 H   0  0  0  0  0  0  0  0  0  0  0  0
   29.4630   31.9410   18.0750 O   0  0  0  0  0  0  0  0  0  0  0  0
   28.5430   32.2990   18.1210 H   0  0  0  0  0  0  0  0  0  0  0  0
   30.4290   34.3150   13.5910 O   0  0  0  0  0  0  0  0  0  0  0  0
   29.1160   34.8580   13.5080 C   0  0  0  0  0  0  0  0  0  0  0  0
   28.6100   34.7780   12.1190 C   0  0  0  0  0  0  0  0  0  0  0  0
   29.3740   34.4870   11.0260 C   0  0  0  0  0  0  0  0  0  0  0  0
   27.3690   34.9670   11.6710 N   0  0  0  0  0  0  0  0  0  0  0  0
   28.5760   34.5080    9.9490 N   0  0  0  0  0  0  0  0  0  0  0  0
   27.3630   34.8000   10.3550 N   0  0  0  0  0  0  0  0  0  0  0  0
   29.0010   34.2500    8.5900 C   0  0  0  0  0  0  0  0  0  0  0  0
   28.8320   35.5230    7.8330 C   0  0  0  0  0  0  0  0  0  0  0  0
   28.0270   35.5260    6.7180 C   0  0  0  0  0  0  0  0  0  0  0  0
   29.4520   36.6860    8.2140 C   0  0  0  0  0  0  0  0  0  0  0  0
   27.8550   36.7030    5.9960 C   0  0  0  0  0  0  0  0  0  0  0  0
   29.2790   37.8520    7.4950 C   0  0  0  0  0  0  0  0  0  0  0  0
   28.4810   37.8700    6.3830 C   0  0  0  0  0  0  0  0  0  0  0  0
   29.7980   39.1180    7.6920 O   0  0  0  0  0  0  0  0  0  0  0  0
   28.4730   39.1410    5.8480 O   0  0  0  0  0  0  0  0  0  0  0  0
   29.1220   39.9740    6.7980 C   0  0  0  0  0  0  0  0  0  0  0  0
   29.8670   25.5550   16.9770 C   0  0  0  0  0  0  0  0  0  0  0  0
   28.3450   25.7220   17.0260 C   0  0  0  0  0  0  0  0  0  0  0  0
   27.6020   24.3990   16.9270 C   0  0  0  0  0  0  0  0  0  0  0  0
   26.6150   24.2180   18.0470 C   0  0  0  0  0  0  0  0  0  0  0  0
   25.2490   24.7380   17.6110 C   0  0  0  0  0  0  0  0  0  0  0  0
   24.2350   24.4740   18.6590 N   0  0  0  0  0  0  0  0  0  0  0  0
  1  5  1  0  0  0  0
  2  1  1  0  0  0  0
  2  3  2  0  0  0  0
  4  1  1  0  0  0  0
  6  5  1  6  0  0  0
  6 29  1  0  0  0  0
  7 27  1  6  0  0  0
  7  6  1  0  0  0  0
  8  7  1  6  0  0  0
  8 11  1  0  0  0  0
  9 14  1  6  0  0  0
  9 11  1  0  0  0  0
  9 16  1  0  0  0  0
 10  9  1  0  0  0  0
 12 20  1  6  0  0  0
 12 10  1  0  0  0  0
 13 22  1  1  0  0  0
 13  8  1  0  0  0  0
 13 12  1  0  0  0  0
 15 14  1  0  0  0  0
 16 18  1  0  0  0  0
 16 17  2  0  0  0  0
 18 19  1  0  0  0  0
 21 20  1  0  0  0  0
 22 24  1  0  0  0  0
 23 22  1  0  0  0  0
 25 23  1  0  0  0  0
 26 23  2  0  0  0  0
 28 27  1  0  0  0  0
 29 30  1  0  0  0  0
 31  2  1  0  0  0  0
 32 31  1  0  0  0  0
 33 32  1  0  0  0  0
 34 33  2  0  0  0  0
 35 33  1  0  0  0  0
 36 37  1  0  0  0  0
 36 34  1  0  0  0  0
 37 35  2  0  0  0  0
 38 36  1  0  0  0  0
 39 41  1  0  0  0  0
 39 38  1  0  0  0  0
 40 39  2  0  0  0  0
 42 44  2  0  0  0  0
 42 40  1  0  0  0  0
 43 45  1  0  0  0  0
 43 41  2  0  0  0  0
 44 43  1  0  0  0  0
 46 44  1  0  0  0  0
 46 47  1  0  0  0  0
 47 45  1  0  0  0  0
 48 49  1  0  0  0  0
 50 49  1  0  0  0  0
 50 51  1  0  0  0  0
 52 51  1  0  0  0  0
 52 53  1  0  0  0  0
M  END
>  <REMARK>
 VINA RESULT:    -5.052      2.694      9.889
 INTER + INTRA:         -15.042
 INTER:                 -11.207
 INTRA:                  -3.835
 UNBOUND:                -6.003
 SMILES CC(=O)N[C@@H]1[C@@H](O)C[C@](O)(C(=O)O)O[C@H]1C(O)[C@H](O)CNC(=O)OCc1cn(Cc2ccc3c(c2)OCO3)nn1
 SMILES IDX 21 1 22 2 23 3 20 5 18 6 16 7 15 8 9 9 8 10 14 11 6 12 5 13
 SMILES IDX 10 14 11 16 12 17 13 18 7 20 4 22 2 23 1 25 3 26 17 27 19 29
 SMILES IDX 24 31 25 32 26 33 27 34 40 35 28 36 39 37 29 38 30 39 31 40
 SMILES IDX 35 41 32 42 34 43 33 44 36 45 38 46 37 47
 H PARENT 21 4 10 15 13 19 7 21 4 24 17 28 19 30
 Flexibility Score: inf
  4 active torsions:
  status: ('A' for Active; 'I' for Inactive)
    1  A    between atoms: CA   and  CB  
    2  A    between atoms: CB   and  CG  
    3  A    between atoms: CG   and  CD  
    4  A    between atoms: CD   and  CE  

>  <TORSDO>
F 16

>  <BEGIN_>
RES LYS A 131

$$$$
ligand_28_pose_10_2HRL.pdbqt
 OpenBabel07062320523D

  6  5  0  0  0  0  0  0  0  0999 V2000
   33.1930   34.6630    9.2900 C   0  0  0  0  0  0  0  0  0  0  0  0
   32.0600   35.3600   10.0340 C   0  0  0  0  0  0  0  0  0  0  0  0
   32.5140   36.1020   11.2650 C   0  0  0  0  0  0  0  0  0  0  0  0
   31.9850   37.5280   11.2570 C   0  0  0  0  0  0  0  0  0  0  0  0
   31.1880   37.8070   12.5180 C   0  0  0  0  0  0  0  0  0  0  0  0
   31.8840   37.2730   13.7210 N   0  0  0  0  0  0  0  0  0  0  0  0
  1  2  1  0  0  0  0
  2  3  1  0  0  0  0
  4  3  1  0  0  0  0
  4  5  1  0  0  0  0
  5  6  1  0  0  0  0
M  END
>  <EGIN_R>
ES LYS A 135

>  <REMARK>
  4 active torsions:
  status: ('A' for Active; 'I' for Inactive)
    5  A    between atoms: CA   and  CB  
    6  A    between atoms: CB   and  CG  
    7  A    between atoms: CG   and  CD  
    8  A    between atoms: CD   and  CE  

$$$$
