ligand_78_pose_16_2HRL.pdbqt
 OpenBabel07062320523D

 53 54  0  0  1  0  0  0  0  0999 V2000
   31.1330   33.8250   18.2860 N   0  0  0  0  0  0  0  0  0  0  0  0
   31.2620   34.5570   19.5220 C   0  0  0  0  0  0  0  0  0  0  0  0
   30.6350   34.1660   20.5170 O   0  0  0  0  0  0  0  0  0  0  0  0
   31.6940   34.2130   17.5040 H   0  0  0  0  0  0  0  0  0  0  0  0
   30.2830   32.6510   18.2110 C   0  0  0  0  0  0  0  0  0  0  0  0
   30.1200   32.1470   16.8170 C   0  0  2  0  0  0  0  0  0  0  0  0
   30.8540   32.9340   15.7860 C   0  0  2  0  0  0  0  0  0  0  0  0
   30.0380   33.6050   14.7410 C   0  0  2  0  0  0  0  0  0  0  0  0
   31.7220   35.0930   14.0930 C   0  0  2  0  0  0  0  0  0  0  0  0
   31.2590   36.0430   15.1480 C   0  0  0  0  0  0  0  0  0  0  0  0
   30.8500   34.1010   13.7240 O   0  0  0  0  0  0  0  0  0  0  0  0
   29.8390   35.9560   15.5520 C   0  0  1  0  0  0  0  0  0  0  0  0
   29.1280   34.7060   15.1170 C   0  0  1  0  0  0  0  0  0  0  0  0
   32.9130   34.4650   14.4610 O   0  0  0  0  0  0  0  0  0  0  0  0
   33.1750   33.7340   13.8790 H   0  0  0  0  0  0  0  0  0  0  0  0
   32.0140   35.8630   12.8560 C   0  0  0  0  0  0  0  0  0  0  0  0
   31.2180   36.7540   12.4890 O   0  0  0  0  0  0  0  0  0  0  0  0
   33.1410   35.6440   12.0740 O   0  0  0  0  0  0  0  0  0  0  0  0
   34.0420   35.3930   12.5040 H   0  0  0  0  0  0  0  0  0  0  0  0
   29.7410   36.1370   16.9300 O   0  0  0  0  0  0  0  0  0  0  0  0
   28.8890   36.5210   17.2050 H   0  0  0  0  0  0  0  0  0  0  0  0
   28.2350   34.9670   13.9840 N   0  0  0  0  0  0  0  0  0  0  0  0
   26.9700   34.3500   13.8740 C   0  0  0  0  0  0  0  0  0  0  0  0
   28.5290   35.6220   13.2340 H   0  0  0  0  0  0  0  0  0  0  0  0
   26.0480   34.6050   12.7260 C   0  0  0  0  0  0  0  0  0  0  0  0
   26.6330   33.5610   14.7910 O   0  0  0  0  0  0  0  0  0  0  0  0
   31.5200   31.8830   15.0150 O   0  0  0  0  0  0  0  0  0  0  0  0
   30.8480   31.5510   14.3940 H   0  0  0  0  0  0  0  0  0  0  0  0
   28.8330   31.8170   16.4430 O   0  0  0  0  0  0  0  0  0  0  0  0
   28.1540   32.1630   17.0720 H   0  0  0  0  0  0  0  0  0  0  0  0
   32.0660   35.6760   19.6120 O   0  0  0  0  0  0  0  0  0  0  0  0
   33.4610   35.5990   19.8450 C   0  0  0  0  0  0  0  0  0  0  0  0
   34.2350   35.8970   18.6310 C   0  0  0  0  0  0  0  0  0  0  0  0
   35.4740   36.4540   18.4810 C   0  0  0  0  0  0  0  0  0  0  0  0
   33.8020   35.6460   17.3780 N   0  0  0  0  0  0  0  0  0  0  0  0
   35.7530   36.5240   17.1550 N   0  0  0  0  0  0  0  0  0  0  0  0
   34.7140   36.0240   16.5080 N   0  0  0  0  0  0  0  0  0  0  0  0
   36.9710   37.0540   16.6020 C   0  0  0  0  0  0  0  0  0  0  0  0
   38.0570   35.7250   16.1020 S   0  0  0  0  0  0  0  0  0  0  0  0
   39.2750   36.3410   15.4610 O   0  0  0  0  0  0  0  0  0  0  0  0
   37.3290   34.8940   15.1130 O   0  0  0  0  0  0  0  0  0  0  0  0
   38.5050   34.8040   17.5260 C   0  0  0  0  0  0  0  0  0  0  0  0
   38.4340   33.4170   17.4550 C   0  0  0  0  0  0  0  0  0  0  0  0
   38.9110   35.4490   18.6700 C   0  0  0  0  0  0  0  0  0  0  0  0
   38.7860   32.6980   18.5710 C   0  0  0  0  0  0  0  0  0  0  0  0
   39.2520   34.6810   19.7630 C   0  0  0  0  0  0  0  0  0  0  0  0
   39.2020   33.3080   19.7510 C   0  0  0  0  0  0  0  0  0  0  0  0
   29.8670   25.5550   16.9770 C   0  0  0  0  0  0  0  0  0  0  0  0
   28.3450   25.7220   17.0260 C   0  0  0  0  0  0  0  0  0  0  0  0
   27.6020   24.3990   16.9200 C   0  0  0  0  0  0  0  0  0  0  0  0
   26.4480   24.3190   17.8800 C   0  0  0  0  0  0  0  0  0  0  0  0
   25.1370   24.2940   17.1000 C   0  0  0  0  0  0  0  0  0  0  0  0
   24.3850   23.0510   17.3890 N   0  0  0  0  0  0  0  0  0  0  0  0
  1  2  1  0  0  0  0
  2 31  1  0  0  0  0
  2  3  2  0  0  0  0
  4  1  1  0  0  0  0
  5  1  1  0  0  0  0
  6  5  1  1  0  0  0
  7 27  1  6  0  0  0
  7  6  1  0  0  0  0
  8 13  1  0  0  0  0
  8  7  1  1  0  0  0
  9 16  1  6  0  0  0
  9 14  1  0  0  0  0
  9 10  1  0  0  0  0
 10 12  1  0  0  0  0
 11  9  1  0  0  0  0
 11  8  1  0  0  0  0
 12 20  1  1  0  0  0
 13 22  1  6  0  0  0
 13 12  1  0  0  0  0
 15 14  1  0  0  0  0
 17 16  2  0  0  0  0
 18 19  1  0  0  0  0
 18 16  1  0  0  0  0
 20 21  1  0  0  0  0
 23 22  1  0  0  0  0
 23 26  2  0  0  0  0
 24 22  1  0  0  0  0
 25 23  1  0  0  0  0
 28 27  1  0  0  0  0
 29  6  1  0  0  0  0
 29 30  1  0  0  0  0
 31 32  1  0  0  0  0
 33 32  1  0  0  0  0
 34 33  2  0  0  0  0
 35 33  1  0  0  0  0
 36 34  1  0  0  0  0
 37 36  1  0  0  0  0
 37 35  2  0  0  0  0
 38 36  1  0  0  0  0
 39 38  1  0  0  0  0
 39 42  1  0  0  0  0
 40 39  2  0  0  0  0
 41 39  2  0  0  0  0
 42 44  1  0  0  0  0
 43 42  2  0  0  0  0
 43 45  1  0  0  0  0
 44 46  2  0  0  0  0
 45 47  2  0  0  0  0
 47 46  1  0  0  0  0
 48 49  1  0  0  0  0
 50 49  1  0  0  0  0
 50 51  1  0  0  0  0
 52 53  1  0  0  0  0
 52 51  1  0  0  0  0
M  END
>  <REMARK>
 VINA RESULT:    -5.189      4.510      7.203
 INTER + INTRA:         -14.599
 INTER:                  -8.458
 INTRA:                  -6.141
 UNBOUND:                -5.011
 SMILES CC(=O)N[C@@H]1[C@@H](O)C[C@](O)(C(=O)O)O[C@H]1C(O)[C@H](O)CNC(=O)OCc1cn(CS(=O)(=O)c2ccccc2)nn1
 SMILES IDX 21 1 22 2 23 3 20 5 18 6 16 7 15 8 9 9 8 10 14 11 6 12 5 13
 SMILES IDX 10 14 11 16 12 17 13 18 7 20 4 22 2 23 1 25 3 26 17 27 19 29
 SMILES IDX 24 31 25 32 26 33 27 34 40 35 28 36 39 37 29 38 30 39 31 40
 SMILES IDX 32 41 33 42 34 43 38 44 35 45 37 46 36 47
 H PARENT 21 4 10 15 13 19 7 21 4 24 17 28 19 30
 Flexibility Score: inf
  4 active torsions:
  status: ('A' for Active; 'I' for Inactive)
    1  A    between atoms: CA   and  CB  
    2  A    between atoms: CB   and  CG  
    3  A    between atoms: CG   and  CD  
    4  A    between atoms: CD   and  CE  

>  <TORSDO>
F 17

>  <BEGIN_>
RES LYS A 131

$$$$
ligand_78_pose_16_2HRL.pdbqt
 OpenBabel07062320523D

  6  5  0  0  0  0  0  0  0  0999 V2000
   33.1930   34.6630    9.2900 C   0  0  0  0  0  0  0  0  0  0  0  0
   32.0600   35.3600   10.0340 C   0  0  0  0  0  0  0  0  0  0  0  0
   30.8010   35.5010    9.2190 C   0  0  0  0  0  0  0  0  0  0  0  0
   30.1390   34.1470    9.0150 C   0  0  0  0  0  0  0  0  0  0  0  0
   28.6800   34.3180    8.6350 C   0  0  0  0  0  0  0  0  0  0  0  0
   27.7850   33.6830    9.6420 N   0  0  0  0  0  0  0  0  0  0  0  0
  1  2  1  0  0  0  0
  3  2  1  0  0  0  0
  4  3  1  0  0  0  0
  5  4  1  0  0  0  0
  5  6  1  0  0  0  0
M  END
>  <EGIN_R>
ES LYS A 135

>  <REMARK>
  4 active torsions:
  status: ('A' for Active; 'I' for Inactive)
    5  A    between atoms: CA   and  CB  
    6  A    between atoms: CB   and  CG  
    7  A    between atoms: CG   and  CD  
    8  A    between atoms: CD   and  CE  

$$$$
