ligand_6_pose_2_2HRL.pdbqt
 OpenBabel07062320523D

 52 53  0  0  1  0  0  0  0  0999 V2000
   22.5470   35.0000    9.8090 N   0  0  0  0  0  0  0  0  0  0  0  0
   22.6480   35.2300   11.1940 C   0  0  0  0  0  0  0  0  0  0  0  0
   22.0470   36.1490   11.7790 O   0  0  0  0  0  0  0  0  0  0  0  0
   23.0950   34.1540    9.4290 H   0  0  0  0  0  0  0  0  0  0  0  0
   21.7970   35.7870    8.9110 C   0  0  0  0  0  0  0  0  0  0  0  0
   22.4750   36.6570    7.9300 C   0  0  2  0  0  0  0  0  0  0  0  0
   23.1370   37.9030    8.2990 C   0  0  2  0  0  0  0  0  0  0  0  0
   24.6190   37.9180    7.9090 C   0  0  2  0  0  0  0  0  0  0  0  0
   26.5470   36.6930    8.3520 C   0  0  2  0  0  0  0  0  0  0  0  0
   27.1720   37.7350    7.4540 C   0  0  0  0  0  0  0  0  0  0  0  0
   25.1710   36.6860    8.3210 O   0  0  0  0  0  0  0  0  0  0  0  0
   26.7140   39.1250    7.7700 C   0  0  1  0  0  0  0  0  0  0  0  0
   25.4060   38.9890    8.5720 C   0  0  1  0  0  0  0  0  0  0  0  0
   27.0630   36.8800    9.6230 O   0  0  0  0  0  0  0  0  0  0  0  0
   26.3750   37.2810   10.1920 H   0  0  0  0  0  0  0  0  0  0  0  0
   27.0060   35.3710    7.8510 C   0  0  0  0  0  0  0  0  0  0  0  0
   27.7430   35.2890    6.8350 O   0  0  0  0  0  0  0  0  0  0  0  0
   26.6370   34.1980    8.4870 O   0  0  0  0  0  0  0  0  0  0  0  0
   27.3270   33.5460    8.8690 H   0  0  0  0  0  0  0  0  0  0  0  0
   27.6360   39.8910    8.4450 O   0  0  0  0  0  0  0  0  0  0  0  0
   28.3010   39.2840    8.8560 H   0  0  0  0  0  0  0  0  0  0  0  0
   24.8050   40.3050    8.5390 N   0  0  0  0  0  0  0  0  0  0  0  0
   24.9150   41.1850    9.6680 C   0  0  0  0  0  0  0  0  0  0  0  0
   24.2800   40.6680    7.7210 H   0  0  0  0  0  0  0  0  0  0  0  0
   24.3270   42.5410    9.7040 C   0  0  0  0  0  0  0  0  0  0  0  0
   25.5430   40.7660   10.6620 O   0  0  0  0  0  0  0  0  0  0  0  0
   22.9700   38.2010    9.6270 O   0  0  0  0  0  0  0  0  0  0  0  0
   23.7610   38.1010   10.2010 H   0  0  0  0  0  0  0  0  0  0  0  0
   21.5390   36.8210    6.8680 O   0  0  0  0  0  0  0  0  0  0  0  0
   21.7480   36.1830    6.1370 H   0  0  0  0  0  0  0  0  0  0  0  0
   23.4790   34.3610   11.9350 O   0  0  0  0  0  0  0  0  0  0  0  0
   24.2860   34.9650   12.9260 C   0  0  0  0  0  0  0  0  0  0  0  0
   25.7350   34.8560   12.5460 C   0  0  0  0  0  0  0  0  0  0  0  0
   26.8310   34.9970   13.3680 C   0  0  0  0  0  0  0  0  0  0  0  0
   26.2570   34.6000   11.3210 N   0  0  0  0  0  0  0  0  0  0  0  0
   27.9700   34.8290   12.6530 N   0  0  0  0  0  0  0  0  0  0  0  0
   27.5640   34.5920   11.4230 N   0  0  0  0  0  0  0  0  0  0  0  0
   29.3070   34.9000   13.1420 C   0  0  0  0  0  0  0  0  0  0  0  0
   29.8410   33.9270   13.9600 C   0  0  0  0  0  0  0  0  0  0  0  0
   30.1320   35.9590   12.8110 C   0  0  0  0  0  0  0  0  0  0  0  0
   31.1400   34.0150   14.4210 C   0  0  0  0  0  0  0  0  0  0  0  0
   31.4310   36.0480   13.2720 C   0  0  0  0  0  0  0  0  0  0  0  0
   31.9690   35.0760   14.0900 C   0  0  0  0  0  0  0  0  0  0  0  0
   33.3000   35.1740   14.5570 N   0  0  0  0  0  0  0  0  0  0  0  0
   34.1970   34.5910   13.9250 O   0  0  0  0  0  0  0  0  0  0  0  0
   33.6650   35.8780   15.6700 O   0  0  0  0  0  0  0  0  0  0  0  0
   29.8670   25.5550   16.9770 C   0  0  0  0  0  0  0  0  0  0  0  0
   28.3450   25.7220   17.0260 C   0  0  0  0  0  0  0  0  0  0  0  0
   27.6000   24.4100   16.8300 C   0  0  0  0  0  0  0  0  0  0  0  0
   26.7700   24.0460   18.0300 C   0  0  0  0  0  0  0  0  0  0  0  0
   25.5670   23.2220   17.5850 C   0  0  0  0  0  0  0  0  0  0  0  0
   24.5730   24.0820   16.9010 N   0  0  0  0  0  0  0  0  0  0  0  0
  1  2  1  0  0  0  0
  2  3  2  0  0  0  0
  2 31  1  0  0  0  0
  4  1  1  0  0  0  0
  5  1  1  0  0  0  0
  6  7  1  0  0  0  0
  6  5  1  1  0  0  0
  7 27  1  1  0  0  0
  8  7  1  1  0  0  0
  8 11  1  0  0  0  0
  8 13  1  0  0  0  0
  9 16  1  6  0  0  0
  9 14  1  0  0  0  0
 10 12  1  0  0  0  0
 10  9  1  0  0  0  0
 11  9  1  0  0  0  0
 12 20  1  1  0  0  0
 12 13  1  0  0  0  0
 13 22  1  6  0  0  0
 14 15  1  0  0  0  0
 16 18  1  0  0  0  0
 17 16  2  0  0  0  0
 18 19  1  0  0  0  0
 20 21  1  0  0  0  0
 22 23  1  0  0  0  0
 23 25  1  0  0  0  0
 23 26  2  0  0  0  0
 24 22  1  0  0  0  0
 27 28  1  0  0  0  0
 29  6  1  0  0  0  0
 30 29  1  0  0  0  0
 31 32  1  0  0  0  0
 33 32  1  0  0  0  0
 33 34  2  0  0  0  0
 35 37  2  0  0  0  0
 35 33  1  0  0  0  0
 36 38  1  0  0  0  0
 36 34  1  0  0  0  0
 37 36  1  0  0  0  0
 38 39  1  0  0  0  0
 39 41  2  0  0  0  0
 40 38  2  0  0  0  0
 40 42  1  0  0  0  0
 42 43  2  0  0  0  0
 43 41  1  0  0  0  0
 43 44  1  0  0  0  0
 44 46  2  0  0  0  0
 45 44  2  0  0  0  0
 47 48  1  0  0  0  0
 49 48  1  0  0  0  0
 49 50  1  0  0  0  0
 51 50  1  0  0  0  0
 52 51  1  0  0  0  0
M  END
>  <REMARK>
 VINA RESULT:    -5.696      6.839     12.691
 INTER + INTRA:         -14.941
 INTER:                  -9.021
 INTRA:                  -5.920
 UNBOUND:                -4.749
 SMILES CC(=O)N[C@@H]1[C@@H](O)C[C@](O)(C(=O)O)O[C@H]1C(O)[C@H](O)CNC(=O)OCc1cn(-c2ccc([N+](=O)[O-])cc2)nn1
 SMILES IDX 21 1 22 2 23 3 20 5 18 6 16 7 15 8 9 9 8 10 14 11 6 12 5 13
 SMILES IDX 10 14 11 16 12 17 13 18 7 20 4 22 2 23 1 25 3 26 17 27 19 29
 SMILES IDX 24 31 25 32 26 33 27 34 39 35 28 36 38 37 29 38 30 39 37 40
 SMILES IDX 31 41 36 42 32 43 33 44 34 45 35 46
 H PARENT 21 4 10 15 13 19 7 21 4 24 17 28 19 30
 Flexibility Score: inf
  4 active torsions:
  status: ('A' for Active; 'I' for Inactive)
    1  A    between atoms: CA   and  CB  
    2  A    between atoms: CB   and  CG  
    3  A    between atoms: CG   and  CD  
    4  A    between atoms: CD   and  CE  

>  <TORSDO>
F 16

>  <BEGIN_>
RES LYS A 131

$$$$
ligand_6_pose_2_2HRL.pdbqt
 OpenBabel07062320523D

  6  5  0  0  0  0  0  0  0  0999 V2000
   33.1930   34.6630    9.2900 C   0  0  0  0  0  0  0  0  0  0  0  0
   32.0600   35.3600   10.0340 C   0  0  0  0  0  0  0  0  0  0  0  0
   30.7360   35.2890    9.3190 C   0  0  0  0  0  0  0  0  0  0  0  0
   30.4360   36.6010    8.6110 C   0  0  0  0  0  0  0  0  0  0  0  0
   30.5500   37.7650    9.5770 C   0  0  0  0  0  0  0  0  0  0  0  0
   31.3790   38.8610    9.0020 N   0  0  0  0  0  0  0  0  0  0  0  0
  1  2  1  0  0  0  0
  3  2  1  0  0  0  0
  4  3  1  0  0  0  0
  4  5  1  0  0  0  0
  6  5  1  0  0  0  0
M  END
>  <EGIN_R>
ES LYS A 135

>  <REMARK>
  4 active torsions:
  status: ('A' for Active; 'I' for Inactive)
    5  A    between atoms: CA   and  CB  
    6  A    between atoms: CB   and  CG  
    7  A    between atoms: CG   and  CD  
    8  A    between atoms: CD   and  CE  

$$$$
