ligand_30_pose_16_2HRL.pdbqt
 OpenBabel07062320523D

 57 57  0  0  1  0  0  0  0  0999 V2000
   24.9720   33.6090   13.5060 C   0  0  0  0  0  0  0  0  0  0  0  0
   25.3620   32.7580   14.5970 N   0  0  0  0  0  0  0  0  0  0  0  0
   25.7060   31.0810   15.9690 C   0  0  0  0  0  0  0  0  0  0  0  0
   25.1350   31.4250   14.7740 C   0  0  0  0  0  0  0  0  0  0  0  0
   26.2620   32.1980   16.4870 N   0  0  0  0  0  0  0  0  0  0  0  0
   26.0400   33.1730   15.6480 N   0  0  0  0  0  0  0  0  0  0  0  0
   25.6960   29.7250   16.5570 C   0  0  0  0  0  0  0  0  0  0  0  0
   26.9750   29.1350   16.4690 O   0  0  0  0  0  0  0  0  0  0  0  0
   28.0760   29.7360   17.0630 C   0  0  0  0  0  0  0  0  0  0  0  0
   29.1040   30.3390   16.2900 N   0  0  0  0  0  0  0  0  0  0  0  0
   29.0500   30.3380   15.2490 H   0  0  0  0  0  0  0  0  0  0  0  0
   28.1460   29.7380   18.3400 O   0  0  0  0  0  0  0  0  0  0  0  0
   30.2200   30.9480   16.9420 C   0  0  0  0  0  0  0  0  0  0  0  0
   30.7460   32.1540   16.1940 C   0  0  2  0  0  0  0  0  0  0  0  0
   29.6180   33.0800   15.8550 C   0  0  2  0  0  0  0  0  0  0  0  0
   30.1500   34.2940   15.1230 C   0  0  2  0  0  0  0  0  0  0  0  0
   30.7640   34.9930   13.0010 C   0  0  2  0  0  0  0  0  0  0  0  0
   31.5790   36.0100   13.7670 C   0  0  0  0  0  0  0  0  0  0  0  0
   30.3160   33.9590   13.8070 O   0  0  0  0  0  0  0  0  0  0  0  0
   32.4050   35.2780   14.7890 C   0  0  1  0  0  0  0  0  0  0  0  0
   31.4140   34.7250   15.8230 C   0  0  1  0  0  0  0  0  0  0  0  0
   31.6150   34.4320   12.0530 O   0  0  0  0  0  0  0  0  0  0  0  0
   32.5160   34.8230   12.1050 H   0  0  0  0  0  0  0  0  0  0  0  0
   29.6860   35.7070   12.3150 C   0  0  0  0  0  0  0  0  0  0  0  0
   28.7640   35.0520   11.7710 O   0  0  0  0  0  0  0  0  0  0  0  0
   29.6060   37.0900   12.2190 O   0  0  0  0  0  0  0  0  0  0  0  0
   30.4590   37.6440   12.3960 H   0  0  0  0  0  0  0  0  0  0  0  0
   33.1520   34.2780   14.2040 O   0  0  0  0  0  0  0  0  0  0  0  0
   32.8210   33.4090   14.5440 H   0  0  0  0  0  0  0  0  0  0  0  0
   31.1600   35.8170   16.7390 N   0  0  0  0  0  0  0  0  0  0  0  0
   31.2910   35.5760   18.1280 C   0  0  0  0  0  0  0  0  0  0  0  0
   30.8850   36.7740   16.4050 H   0  0  0  0  0  0  0  0  0  0  0  0
   31.0380   36.6770   19.1070 C   0  0  0  0  0  0  0  0  0  0  0  0
   31.6180   34.4460   18.5390 O   0  0  0  0  0  0  0  0  0  0  0  0
   28.9720   33.4250   17.0460 O   0  0  0  0  0  0  0  0  0  0  0  0
   29.1630   32.8170   17.7810 H   0  0  0  0  0  0  0  0  0  0  0  0
   31.3730   31.7820   15.0040 O   0  0  0  0  0  0  0  0  0  0  0  0
   31.3110   32.4870   14.3320 H   0  0  0  0  0  0  0  0  0  0  0  0
   23.4690   33.6500   13.4290 C   0  0  0  0  0  0  0  0  0  0  0  0
   22.9630   33.9870   12.0550 C   0  0  0  0  0  0  0  0  0  0  0  0
   23.3850   35.3630   11.6050 C   0  0  0  0  0  0  0  0  0  0  0  0
   23.8170   35.3120   10.1430 C   0  0  0  0  0  0  0  0  0  0  0  0
   22.6710   35.7750    9.2820 C   0  0  0  0  0  0  0  0  0  0  0  0
   21.7910   36.7500   10.0090 C   0  0  0  0  0  0  0  0  0  0  0  0
   20.3810   36.2620   10.0460 C   0  0  0  0  0  0  0  0  0  0  0  0
   19.4770   37.1310    9.1770 C   0  0  0  0  0  0  0  0  0  0  0  0
   19.4610   36.6770    7.7420 C   0  0  0  0  0  0  0  0  0  0  0  0
   19.0410   35.2410    7.7560 C   0  0  0  0  0  0  0  0  0  0  0  0
   17.9190   34.8560    8.1460 O   0  0  0  0  0  0  0  0  0  0  0  0
   19.9380   34.2680    7.3090 O   0  0  0  0  0  0  0  0  0  0  0  0
   19.6420   33.6240    6.5960 H   0  0  0  0  0  0  0  0  0  0  0  0
   29.8670   25.5550   16.9770 C   0  0  0  0  0  0  0  0  0  0  0  0
   28.3450   25.7220   17.0260 C   0  0  0  0  0  0  0  0  0  0  0  0
   27.6020   24.3990   16.9210 C   0  0  0  0  0  0  0  0  0  0  0  0
   26.1510   24.5330   17.2940 C   0  0  0  0  0  0  0  0  0  0  0  0
   26.0020   25.5870   18.3860 C   0  0  0  0  0  0  0  0  0  0  0  0
   24.8980   26.5190   18.0600 N   0  0  0  0  0  0  0  0  0  0  0  0
  1  2  1  0  0  0  0
  2  4  1  0  0  0  0
  2  6  1  0  0  0  0
  3  5  1  0  0  0  0
  3  7  1  0  0  0  0
  4  3  2  0  0  0  0
  6  5  2  0  0  0  0
  8  7  1  0  0  0  0
  8  9  1  0  0  0  0
  9 12  2  0  0  0  0
 10 13  1  0  0  0  0
 10  9  1  0  0  0  0
 11 10  1  0  0  0  0
 14 13  1  6  0  0  0
 15 14  1  0  0  0  0
 15 35  1  1  0  0  0
 16 21  1  0  0  0  0
 16 15  1  1  0  0  0
 17 22  1  6  0  0  0
 17 18  1  0  0  0  0
 17 19  1  0  0  0  0
 18 20  1  0  0  0  0
 19 16  1  0  0  0  0
 20 28  1  6  0  0  0
 20 21  1  0  0  0  0
 21 30  1  1  0  0  0
 22 23  1  0  0  0  0
 24 17  1  0  0  0  0
 25 24  2  0  0  0  0
 26 24  1  0  0  0  0
 26 27  1  0  0  0  0
 28 29  1  0  0  0  0
 30 31  1  0  0  0  0
 31 34  2  0  0  0  0
 31 33  1  0  0  0  0
 32 30  1  0  0  0  0
 35 36  1  0  0  0  0
 37 14  1  0  0  0  0
 38 37  1  0  0  0  0
 39  1  1  0  0  0  0
 40 39  1  0  0  0  0
 41 40  1  0  0  0  0
 42 41  1  0  0  0  0
 43 44  1  0  0  0  0
 43 42  1  0  0  0  0
 44 45  1  0  0  0  0
 46 45  1  0  0  0  0
 47 48  1  0  0  0  0
 47 46  1  0  0  0  0
 48 49  2  0  0  0  0
 50 48  1  0  0  0  0
 51 50  1  0  0  0  0
 52 53  1  0  0  0  0
 54 53  1  0  0  0  0
 54 55  1  0  0  0  0
 55 56  1  0  0  0  0
 57 56  1  0  0  0  0
M  END
>  <REMARK>
 VINA RESULT:    -3.645      3.865      8.026
 INTER + INTRA:         -16.844
 INTER:                 -10.640
 INTRA:                  -6.204
 UNBOUND:                -8.298
 SMILES CC(=O)N[C@@H]1[C@@H](O)C[C@](O)(C(=O)O)O[C@H]1C(O)[C@H](O)CNC(=O)OCc1cn(CCCCCCCCCCC(=O)O)nn1
 SMILES IDX 29 1 28 2 26 3 27 4 43 5 42 6 25 7 24 8 22 9 21 10 23 12
 SMILES IDX 20 13 18 14 16 15 15 16 9 17 8 18 14 19 6 20 5 21 10 22
 SMILES IDX 11 24 12 25 13 26 7 28 4 30 2 31 1 33 3 34 17 35 19 37 30 39
 SMILES IDX 31 40 32 41 33 42 34 43 35 44 36 45 37 46 38 47 39 48 40 49
 SMILES IDX 41 50
 H PARENT 21 11 10 23 13 27 7 29 4 32 17 36 19 38 41 51
 Flexibility Score: inf
  4 active torsions:
  status: ('A' for Active; 'I' for Inactive)
    1  A    between atoms: CA   and  CB  
    2  A    between atoms: CB   and  CG  
    3  A    between atoms: CG   and  CD  
    4  A    between atoms: CD   and  CE  

>  <TORSDO>
F 26

>  <BEGIN_>
RES LYS A 131

$$$$
ligand_30_pose_16_2HRL.pdbqt
 OpenBabel07062320523D

  6  5  0  0  0  0  0  0  0  0999 V2000
   33.1930   34.6630    9.2900 C   0  0  0  0  0  0  0  0  0  0  0  0
   32.0600   35.3600   10.0340 C   0  0  0  0  0  0  0  0  0  0  0  0
   30.9160   35.7700    9.1430 C   0  0  0  0  0  0  0  0  0  0  0  0
   30.3770   34.5710    8.3770 C   0  0  0  0  0  0  0  0  0  0  0  0
   28.9350   34.8050    7.9690 C   0  0  0  0  0  0  0  0  0  0  0  0
   28.8550   35.5330    6.6720 N   0  0  0  0  0  0  0  0  0  0  0  0
  1  2  1  0  0  0  0
  3  2  1  0  0  0  0
  4  3  1  0  0  0  0
  5  4  1  0  0  0  0
  6  5  1  0  0  0  0
M  END
>  <EGIN_R>
ES LYS A 135

>  <REMARK>
  4 active torsions:
  status: ('A' for Active; 'I' for Inactive)
    5  A    between atoms: CA   and  CB  
    6  A    between atoms: CB   and  CG  
    7  A    between atoms: CG   and  CD  
    8  A    between atoms: CD   and  CE  

$$$$
