ligand_40_pose_10_2HRL.pdbqt
 OpenBabel07062320523D

 50 51  0  0  1  0  0  0  0  0999 V2000
   26.6380   35.0860    8.3510 C   0  0  0  0  0  0  0  0  0  0  0  0
   27.5480   35.9580    7.5900 C   0  0  2  0  0  0  0  0  0  0  0  0
   26.9860   37.0740    6.7690 C   0  0  2  0  0  0  0  0  0  0  0  0
   27.3620   38.4640    7.1720 C   0  0  2  0  0  0  0  0  0  0  0  0
   27.5020   39.5350    5.0930 C   0  0  2  0  0  0  0  0  0  0  0  0
   28.9470   39.9520    5.3040 C   0  0  0  0  0  0  0  0  0  0  0  0
   26.8030   39.3550    6.2440 O   0  0  0  0  0  0  0  0  0  0  0  0
   29.5960   38.9970    6.2940 C   0  0  1  0  0  0  0  0  0  0  0  0
   28.7570   38.7940    7.5130 C   0  0  1  0  0  0  0  0  0  0  0  0
   27.5190   38.4580    4.2400 O   0  0  0  0  0  0  0  0  0  0  0  0
   27.8680   38.6550    3.3330 H   0  0  0  0  0  0  0  0  0  0  0  0
   26.8660   40.6840    4.3750 C   0  0  0  0  0  0  0  0  0  0  0  0
   27.5190   41.4220    3.5790 O   0  0  0  0  0  0  0  0  0  0  0  0
   25.5290   40.9660    4.5720 O   0  0  0  0  0  0  0  0  0  0  0  0
   25.1340   41.8150    4.1610 H   0  0  0  0  0  0  0  0  0  0  0  0
   29.6530   37.7810    5.6110 O   0  0  0  0  0  0  0  0  0  0  0  0
   30.2090   37.8460    4.7920 H   0  0  0  0  0  0  0  0  0  0  0  0
   28.7100   39.9490    8.3900 N   0  0  0  0  0  0  0  0  0  0  0  0
   29.2660   39.9660    9.6800 C   0  0  0  0  0  0  0  0  0  0  0  0
   28.2310   40.7860    7.9990 H   0  0  0  0  0  0  0  0  0  0  0  0
   29.2340   41.1240   10.5930 C   0  0  0  0  0  0  0  0  0  0  0  0
   29.8170   38.9130   10.0520 O   0  0  0  0  0  0  0  0  0  0  0  0
   25.5610   37.0820    7.1360 O   0  0  0  0  0  0  0  0  0  0  0  0
   25.1350   36.3570    6.6070 H   0  0  0  0  0  0  0  0  0  0  0  0
   28.5530   35.2440    6.9540 O   0  0  0  0  0  0  0  0  0  0  0  0
   29.3490   35.1090    7.5540 H   0  0  0  0  0  0  0  0  0  0  0  0
   26.5410   35.3920    9.7810 N   0  0  0  0  0  0  0  0  0  0  0  0
   25.3580   35.9120   10.3530 C   0  0  0  0  0  0  0  0  0  0  0  0
   27.3490   35.2470   10.4410 H   0  0  0  0  0  0  0  0  0  0  0  0
   24.3710   36.1210    9.6400 O   0  0  0  0  0  0  0  0  0  0  0  0
   25.2440   36.2100   11.7120 O   0  0  0  0  0  0  0  0  0  0  0  0
   26.0810   35.5550   12.6350 C   0  0  0  0  0  0  0  0  0  0  0  0
   25.5290   34.2840   13.1140 C   0  0  0  0  0  0  0  0  0  0  0  0
   24.4900   33.6200   12.4970 C   0  0  0  0  0  0  0  0  0  0  0  0
   25.8550   33.5110   14.1700 N   0  0  0  0  0  0  0  0  0  0  0  0
   24.2080   32.4850   13.1700 N   0  0  0  0  0  0  0  0  0  0  0  0
   25.0540   32.4520   14.1770 N   0  0  0  0  0  0  0  0  0  0  0  0
   23.2160   31.4970   12.8950 C   0  0  0  0  0  0  0  0  0  0  0  0
   21.8950   31.8480   12.7050 C   0  0  0  0  0  0  0  0  0  0  0  0
   23.5240   30.1540   12.8080 C   0  0  0  0  0  0  0  0  0  0  0  0
   20.9240   30.9020   12.4380 C   0  0  0  0  0  0  0  0  0  0  0  0
   22.5590   29.2050   12.5420 C   0  0  0  0  0  0  0  0  0  0  0  0
   21.2420   29.5630   12.3520 C   0  0  0  0  0  0  0  0  0  0  0  0
   20.2330   28.5090   12.0690 C   0  0  0  0  0  0  0  0  0  0  0  0
   29.8670   25.5550   16.9770 C   0  0  0  0  0  0  0  0  0  0  0  0
   28.3450   25.7220   17.0260 C   0  0  0  0  0  0  0  0  0  0  0  0
   27.6020   24.4000   16.9090 C   0  0  0  0  0  0  0  0  0  0  0  0
   26.1710   24.5140   17.3580 C   0  0  0  0  0  0  0  0  0  0  0  0
   25.7780   23.2570   18.1280 C   0  0  0  0  0  0  0  0  0  0  0  0
   25.4890   23.5850   19.5440 N   0  0  0  0  0  0  0  0  0  0  0  0
  1 27  1  0  0  0  0
  2  1  1  6  0  0  0
  3 23  1  1  0  0  0
  3  2  1  0  0  0  0
  4  3  1  6  0  0  0
  4  9  1  0  0  0  0
  5 10  1  6  0  0  0
  5  6  1  0  0  0  0
  5  7  1  0  0  0  0
  6  8  1  0  0  0  0
  7  4  1  0  0  0  0
  8 16  1  6  0  0  0
  8  9  1  0  0  0  0
  9 18  1  1  0  0  0
 11 10  1  0  0  0  0
 12 14  1  0  0  0  0
 12  5  1  0  0  0  0
 13 12  2  0  0  0  0
 15 14  1  0  0  0  0
 17 16  1  0  0  0  0
 18 19  1  0  0  0  0
 19 22  2  0  0  0  0
 19 21  1  0  0  0  0
 20 18  1  0  0  0  0
 24 23  1  0  0  0  0
 25 26  1  0  0  0  0
 25  2  1  0  0  0  0
 27 28  1  0  0  0  0
 27 29  1  0  0  0  0
 28 31  1  0  0  0  0
 30 28  2  0  0  0  0
 31 32  1  0  0  0  0
 32 33  1  0  0  0  0
 33 35  1  0  0  0  0
 34 33  2  0  0  0  0
 34 36  1  0  0  0  0
 35 37  2  0  0  0  0
 36 37  1  0  0  0  0
 38 36  1  0  0  0  0
 39 38  2  0  0  0  0
 40 38  1  0  0  0  0
 41 39  1  0  0  0  0
 42 40  2  0  0  0  0
 43 41  2  0  0  0  0
 43 42  1  0  0  0  0
 44 43  1  0  0  0  0
 45 46  1  0  0  0  0
 47 46  1  0  0  0  0
 47 48  1  0  0  0  0
 48 49  1  0  0  0  0
 49 50  1  0  0  0  0
M  END
>  <REMARK>
 VINA RESULT:    -5.202      5.027      9.290
 INTER + INTRA:         -14.016
 INTER:                  -9.839
 INTRA:                  -4.178
 UNBOUND:                -5.012
 SMILES CC(=O)N[C@@H]1[C@@H](O)C[C@](O)(C(=O)O)O[C@H]1C(O)[C@H](O)CNC(=O)OCc1cn(-c2ccc(C)cc2)nn1
 SMILES IDX 20 1 18 2 16 3 15 4 9 5 8 6 14 7 6 8 5 9 10 10 11 12 12 13
 SMILES IDX 13 14 7 16 4 18 2 19 1 21 3 22 17 23 19 25 21 27 22 28 23 30
 SMILES IDX 24 31 25 32 26 33 27 34 37 35 28 36 36 37 29 38 30 39 35 40
 SMILES IDX 31 41 34 42 32 43 33 44
 H PARENT 10 11 13 15 7 17 4 20 17 24 19 26 21 29
 Flexibility Score: inf
  4 active torsions:
  status: ('A' for Active; 'I' for Inactive)
    1  A    between atoms: CA   and  CB  
    2  A    between atoms: CB   and  CG  
    3  A    between atoms: CG   and  CD  
    4  A    between atoms: CD   and  CE  

>  <TORSDO>
F 15

>  <BEGIN_>
RES LYS A 131

$$$$
ligand_40_pose_10_2HRL.pdbqt
 OpenBabel07062320523D

  6  5  0  0  0  0  0  0  0  0999 V2000
   33.1930   34.6630    9.2900 C   0  0  0  0  0  0  0  0  0  0  0  0
   32.0600   35.3600   10.0340 C   0  0  0  0  0  0  0  0  0  0  0  0
   30.6910   34.8520    9.6600 C   0  0  0  0  0  0  0  0  0  0  0  0
   29.7600   34.8840   10.8620 C   0  0  0  0  0  0  0  0  0  0  0  0
   30.5570   34.9120   12.1520 C   0  0  0  0  0  0  0  0  0  0  0  0
   29.7700   34.3400   13.2810 N   0  0  0  0  0  0  0  0  0  0  0  0
  1  2  1  0  0  0  0
  3  2  1  0  0  0  0
  3  4  1  0  0  0  0
  4  5  1  0  0  0  0
  5  6  1  0  0  0  0
M  END
>  <EGIN_R>
ES LYS A 135

>  <REMARK>
  4 active torsions:
  status: ('A' for Active; 'I' for Inactive)
    5  A    between atoms: CA   and  CB  
    6  A    between atoms: CB   and  CG  
    7  A    between atoms: CG   and  CD  
    8  A    between atoms: CD   and  CE  

$$$$
