ligand_79_pose_8_2HRL.pdbqt
 OpenBabel07062320523D

 58 60  0  0  1  0  0  0  0  0999 V2000
   28.3050   28.4500   19.1880 N   0  0  0  0  0  0  0  0  0  0  0  0
   27.2650   28.4420   18.2290 C   0  0  0  0  0  0  0  0  0  0  0  0
   26.4180   27.5450   18.2130 O   0  0  0  0  0  0  0  0  0  0  0  0
   28.9830   29.2820   19.1160 H   0  0  0  0  0  0  0  0  0  0  0  0
   28.5180   27.4650   20.2140 C   0  0  0  0  0  0  0  0  0  0  0  0
   29.7270   27.6530   21.0530 C   0  0  2  0  0  0  0  0  0  0  0  0
   30.9410   28.1340   20.2740 C   0  0  1  0  0  0  0  0  0  0  0  0
   31.6230   29.2880   20.9630 C   0  0  2  0  0  0  0  0  0  0  0  0
   32.7030   28.7780   22.9490 C   0  0  2  0  0  0  0  0  0  0  0  0
   32.2640   30.0440   23.6520 C   0  0  0  0  0  0  0  0  0  0  0  0
   32.7970   28.9540   21.5740 O   0  0  0  0  0  0  0  0  0  0  0  0
   31.5250   30.9740   22.7130 C   0  0  1  0  0  0  0  0  0  0  0  0
   30.6610   30.0670   21.8340 C   0  0  1  0  0  0  0  0  0  0  0  0
   31.8920   27.6860   23.2560 O   0  0  0  0  0  0  0  0  0  0  0  0
   32.0480   26.9360   22.6130 H   0  0  0  0  0  0  0  0  0  0  0  0
   34.0680   28.4560   23.4430 C   0  0  0  0  0  0  0  0  0  0  0  0
   34.2030   27.8470   24.5510 O   0  0  0  0  0  0  0  0  0  0  0  0
   35.2180   28.7830   22.7620 O   0  0  0  0  0  0  0  0  0  0  0  0
   36.1330   28.4320   23.0150 H   0  0  0  0  0  0  0  0  0  0  0  0
   30.7650   31.9050   23.3810 O   0  0  0  0  0  0  0  0  0  0  0  0
   31.2550   32.7860   23.3450 H   0  0  0  0  0  0  0  0  0  0  0  0
   29.7650   30.8300   21.0090 N   0  0  0  0  0  0  0  0  0  0  0  0
   28.4010   31.0840   21.3950 C   0  0  0  0  0  0  0  0  0  0  0  0
   30.0420   31.2450   20.0850 H   0  0  0  0  0  0  0  0  0  0  0  0
   27.4580   31.8540   20.5850 C   0  0  0  0  0  0  0  0  0  0  0  0
   28.0380   30.5920   22.5120 O   0  0  0  0  0  0  0  0  0  0  0  0
   31.8090   27.0400   20.2230 O   0  0  0  0  0  0  0  0  0  0  0  0
   32.6760   27.2220   20.6340 H   0  0  0  0  0  0  0  0  0  0  0  0
   30.0960   26.4670   21.6590 O   0  0  0  0  0  0  0  0  0  0  0  0
   30.9780   26.2030   21.2900 H   0  0  0  0  0  0  0  0  0  0  0  0
   27.1440   29.4420   17.2620 O   0  0  0  0  0  0  0  0  0  0  0  0
   28.2370   29.8170   16.4770 C   0  0  0  0  0  0  0  0  0  0  0  0
   28.9000   31.0170   17.0500 C   0  0  0  0  0  0  0  0  0  0  0  0
   28.6090   32.3370   16.7400 C   0  0  0  0  0  0  0  0  0  0  0  0
   29.8890   31.0930   17.9640 N   0  0  0  0  0  0  0  0  0  0  0  0
   29.4110   33.1500   17.4560 N   0  0  0  0  0  0  0  0  0  0  0  0
   30.1770   32.3620   18.1900 N   0  0  0  0  0  0  0  0  0  0  0  0
   29.4150   34.6250   17.4130 C   0  0  0  0  0  0  0  0  0  0  0  0
   28.3630   35.0890   16.4650 C   0  0  0  0  0  0  0  0  0  0  0  0
   29.0630   35.0270   18.8580 C   0  0  0  0  0  0  0  0  0  0  0  0
   30.7850   35.0490   17.1340 C   0  0  0  0  0  0  0  0  0  0  0  0
   31.4870   35.6360   18.0310 O   0  0  0  0  0  0  0  0  0  0  0  0
   31.4770   34.8690   15.8640 C   0  0  0  0  0  0  0  0  0  0  0  0
   32.2160   33.7400   15.5130 C   0  0  0  0  0  0  0  0  0  0  0  0
   31.5260   35.7870   14.8470 C   0  0  0  0  0  0  0  0  0  0  0  0
   32.7050   33.9780   14.2970 N   0  0  0  0  0  0  0  0  0  0  0  0
   32.3170   35.1940   13.8580 C   0  0  0  0  0  0  0  0  0  0  0  0
   30.9870   37.0530   14.6390 C   0  0  0  0  0  0  0  0  0  0  0  0
   33.2980   33.3340   13.7530 H   0  0  0  0  0  0  0  0  0  0  0  0
   32.5380   35.9000   12.6920 C   0  0  0  0  0  0  0  0  0  0  0  0
   31.2270   37.7210   13.4740 C   0  0  0  0  0  0  0  0  0  0  0  0
   31.9980   37.1500   12.5060 C   0  0  0  0  0  0  0  0  0  0  0  0
   29.8670   25.5550   16.9770 C   0  0  0  0  0  0  0  0  0  0  0  0
   28.3450   25.7220   17.0260 C   0  0  0  0  0  0  0  0  0  0  0  0
   27.5990   24.4280   16.7400 C   0  0  0  0  0  0  0  0  0  0  0  0
   26.9540   23.8610   17.9740 C   0  0  0  0  0  0  0  0  0  0  0  0
   25.5610   23.3450   17.6290 C   0  0  0  0  0  0  0  0  0  0  0  0
   24.7900   24.3800   16.9000 N   0  0  0  0  0  0  0  0  0  0  0  0
  1  5  1  0  0  0  0
  2  1  1  0  0  0  0
  3  2  2  0  0  0  0
  4  1  1  0  0  0  0
  6  5  1  6  0  0  0
  6 29  1  0  0  0  0
  7 27  1  1  0  0  0
  7  6  1  0  0  0  0
  8  7  1  1  0  0  0
  8 11  1  0  0  0  0
  8 13  1  0  0  0  0
  9 14  1  1  0  0  0
  9 16  1  0  0  0  0
  9 10  1  0  0  0  0
 11  9  1  0  0  0  0
 12 20  1  1  0  0  0
 12 10  1  0  0  0  0
 13 22  1  6  0  0  0
 13 12  1  0  0  0  0
 15 14  1  0  0  0  0
 16 17  2  0  0  0  0
 18 19  1  0  0  0  0
 18 16  1  0  0  0  0
 21 20  1  0  0  0  0
 22 23  1  0  0  0  0
 23 26  2  0  0  0  0
 24 22  1  0  0  0  0
 25 23  1  0  0  0  0
 27 28  1  0  0  0  0
 30 29  1  0  0  0  0
 31  2  1  0  0  0  0
 32 33  1  0  0  0  0
 32 31  1  0  0  0  0
 33 35  1  0  0  0  0
 34 33  2  0  0  0  0
 34 36  1  0  0  0  0
 35 37  2  0  0  0  0
 36 37  1  0  0  0  0
 38 36  1  0  0  0  0
 38 40  1  0  0  0  0
 39 38  1  0  0  0  0
 41 38  1  0  0  0  0
 41 42  2  0  0  0  0
 43 41  1  0  0  0  0
 44 43  2  0  0  0  0
 45 43  1  0  0  0  0
 46 44  1  0  0  0  0
 47 46  1  0  0  0  0
 47 45  2  0  0  0  0
 48 45  1  0  0  0  0
 49 46  1  0  0  0  0
 50 47  1  0  0  0  0
 51 48  2  0  0  0  0
 52 50  2  0  0  0  0
 52 51  1  0  0  0  0
 53 54  1  0  0  0  0
 55 54  1  0  0  0  0
 55 56  1  0  0  0  0
 57 56  1  0  0  0  0
 58 57  1  0  0  0  0
M  END
>  <REMARK>
 VINA RESULT:    -6.068      5.514     11.519
 INTER + INTRA:         -15.989
 INTER:                  -9.214
 INTRA:                  -6.775
 UNBOUND:                -4.777
 SMILES CC(=O)N[C@@H]1[C@@H](O)C[C@](O)(C(=O)O)O[C@H]1C(O)[C@H](O)CNC(=O)OCc1cn(C(C)(C)C(=O)c2c[nH]c3ccccc23)nn1
 SMILES IDX 21 1 22 2 23 3 20 5 18 6 16 7 15 8 9 9 8 10 14 11 6 12 5 13
 SMILES IDX 10 14 11 16 12 17 13 18 7 20 4 22 2 23 1 25 3 26 17 27 19 29
 SMILES IDX 24 31 25 32 26 33 27 34 44 35 28 36 43 37 29 38 30 39 31 40
 SMILES IDX 32 41 33 42 34 43 35 44 42 45 36 46 37 47 41 48 38 50 40 51
 SMILES IDX 39 52
 H PARENT 21 4 10 15 13 19 7 21 4 24 17 28 19 30 36 49
 Flexibility Score: inf
  4 active torsions:
  status: ('A' for Active; 'I' for Inactive)
    1  A    between atoms: CA   and  CB  
    2  A    between atoms: CB   and  CG  
    3  A    between atoms: CG   and  CD  
    4  A    between atoms: CD   and  CE  

>  <TORSDO>
F 17

>  <BEGIN_>
RES LYS A 131

$$$$
ligand_79_pose_8_2HRL.pdbqt
 OpenBabel07062320523D

  6  5  0  0  0  0  0  0  0  0999 V2000
   33.1930   34.6630    9.2900 C   0  0  0  0  0  0  0  0  0  0  0  0
   32.0600   35.3600   10.0340 C   0  0  0  0  0  0  0  0  0  0  0  0
   30.6970   34.7990    9.7190 C   0  0  0  0  0  0  0  0  0  0  0  0
   30.5700   34.4990    8.2340 C   0  0  0  0  0  0  0  0  0  0  0  0
   29.1950   34.8890    7.7270 C   0  0  0  0  0  0  0  0  0  0  0  0
   28.1320   34.4660    8.6810 N   0  0  0  0  0  0  0  0  0  0  0  0
  1  2  1  0  0  0  0
  3  2  1  0  0  0  0
  4  3  1  0  0  0  0
  5  4  1  0  0  0  0
  5  6  1  0  0  0  0
M  END
>  <EGIN_R>
ES LYS A 135

>  <REMARK>
  4 active torsions:
  status: ('A' for Active; 'I' for Inactive)
    5  A    between atoms: CA   and  CB  
    6  A    between atoms: CB   and  CG  
    7  A    between atoms: CG   and  CD  
    8  A    between atoms: CD   and  CE  

$$$$
