ligand_81_pose_7_2HRL.pdbqt
 OpenBabel07062320523D

 63 65  0  0  1  0  0  0  0  0999 V2000
   28.4300   31.8270   19.6230 O   0  0  0  0  0  0  0  0  0  0  0  0
   29.6170   31.9350   18.9320 C   0  0  0  0  0  0  0  0  0  0  0  0
   29.6900   32.5950   17.6500 N   0  0  0  0  0  0  0  0  0  0  0  0
   28.7830   32.9680   17.3050 H   0  0  0  0  0  0  0  0  0  0  0  0
   30.6500   31.4410   19.4480 O   0  0  0  0  0  0  0  0  0  0  0  0
   30.9610   32.6800   16.9700 C   0  0  0  0  0  0  0  0  0  0  0  0
   30.7630   32.1590   15.5530 C   0  0  2  0  0  0  0  0  0  0  0  0
   30.0230   33.2380   14.7990 C   0  0  2  0  0  0  0  0  0  0  0  0
   30.3090   34.6360   15.2530 C   0  0  2  0  0  0  0  0  0  0  0  0
   28.8610   35.6710   13.7300 C   0  0  2  0  0  0  0  0  0  0  0  0
   30.0820   35.9200   12.8600 C   0  0  0  0  0  0  0  0  0  0  0  0
   29.1830   35.3920   15.0260 O   0  0  0  0  0  0  0  0  0  0  0  0
   31.2160   36.3720   13.7560 C   0  0  1  0  0  0  0  0  0  0  0  0
   31.5650   35.2530   14.7570 C   0  0  1  0  0  0  0  0  0  0  0  0
   28.1560   34.6340   13.1040 O   0  0  0  0  0  0  0  0  0  0  0  0
   28.5960   33.7630   13.2190 H   0  0  0  0  0  0  0  0  0  0  0  0
   27.9800   36.8570   13.7360 C   0  0  0  0  0  0  0  0  0  0  0  0
   27.1230   36.9880   12.8410 O   0  0  0  0  0  0  0  0  0  0  0  0
   28.1030   37.8070   14.7150 O   0  0  0  0  0  0  0  0  0  0  0  0
   28.9320   38.3630   14.8810 H   0  0  0  0  0  0  0  0  0  0  0  0
   32.3160   36.7430   13.0180 O   0  0  0  0  0  0  0  0  0  0  0  0
   32.6680   37.6120   13.3070 H   0  0  0  0  0  0  0  0  0  0  0  0
   32.3150   35.9360   15.8200 N   0  0  0  0  0  0  0  0  0  0  0  0
   33.7240   35.8140   15.8700 C   0  0  0  0  0  0  0  0  0  0  0  0
   31.8280   36.5100   16.5410 H   0  0  0  0  0  0  0  0  0  0  0  0
   34.5500   36.4810   16.9230 C   0  0  0  0  0  0  0  0  0  0  0  0
   34.2790   35.1110   14.9800 O   0  0  0  0  0  0  0  0  0  0  0  0
   28.6600   33.0150   15.1840 O   0  0  0  0  0  0  0  0  0  0  0  0
   28.4530   32.0610   15.1300 H   0  0  0  0  0  0  0  0  0  0  0  0
   30.0650   30.9680   15.6720 O   0  0  0  0  0  0  0  0  0  0  0  0
   30.0410   30.4680   14.8280 H   0  0  0  0  0  0  0  0  0  0  0  0
   27.4240   30.8680   19.3820 C   0  0  0  0  0  0  0  0  0  0  0  0
   27.1350   30.8000   17.9140 C   0  0  0  0  0  0  0  0  0  0  0  0
   26.2170   31.5260   17.1970 C   0  0  0  0  0  0  0  0  0  0  0  0
   27.7350   29.9930   17.0130 N   0  0  0  0  0  0  0  0  0  0  0  0
   26.2650   31.1590   15.8800 N   0  0  0  0  0  0  0  0  0  0  0  0
   27.2060   30.2250   15.8260 N   0  0  0  0  0  0  0  0  0  0  0  0
   25.4610   31.6670   14.8300 C   0  0  0  0  0  0  0  0  0  0  0  0
   25.6810   32.8820   14.3100 N   0  0  0  0  0  0  0  0  0  0  0  0
   24.3920   30.9180   14.3240 C   0  0  0  0  0  0  0  0  0  0  0  0
   24.8960   33.3830   13.3220 C   0  0  0  0  0  0  0  0  0  0  0  0
   23.5990   31.4210   13.3320 C   0  0  0  0  0  0  0  0  0  0  0  0
   23.8700   32.6800   12.8310 N   0  0  0  0  0  0  0  0  0  0  0  0
   24.1240   29.5910   14.9140 C   0  0  0  0  0  0  0  0  0  0  0  0
   23.1380   29.5870   16.0480 C   0  0  0  0  0  0  0  0  0  0  0  0
   23.7100   29.2570   17.2460 O   0  0  0  0  0  0  0  0  0  0  0  0
   24.3130   28.0210   17.2640 C   0  0  0  0  0  0  0  0  0  0  0  0
   23.2980   26.9000   17.3300 C   0  0  0  0  0  0  0  0  0  0  0  0
   25.1650   34.6700   12.8030 N   0  0  0  0  0  0  0  0  0  0  0  0
   25.5680   34.7750   11.8550 H   0  0  0  0  0  0  0  0  0  0  0  0
   24.9710   35.5320   13.3450 H   0  0  0  0  0  0  0  0  0  0  0  0
   22.4120   30.7440   12.8470 C   0  0  0  0  0  0  0  0  0  0  0  0
   22.2790   29.4700   12.4330 C   0  0  0  0  0  0  0  0  0  0  0  0
   21.2390   31.5320   12.8320 C   0  0  0  0  0  0  0  0  0  0  0  0
   21.0330   28.9670   12.0140 C   0  0  0  0  0  0  0  0  0  0  0  0
   20.0230   31.0570   12.4270 C   0  0  0  0  0  0  0  0  0  0  0  0
   19.9000   29.7450   12.0050 C   0  0  0  0  0  0  0  0  0  0  0  0
   29.8670   25.5550   16.9770 C   0  0  0  0  0  0  0  0  0  0  0  0
   28.3450   25.7220   17.0260 C   0  0  0  0  0  0  0  0  0  0  0  0
   27.6020   24.4000   16.9170 C   0  0  0  0  0  0  0  0  0  0  0  0
   26.1670   24.5190   17.3490 C   0  0  0  0  0  0  0  0  0  0  0  0
   26.1100   24.9480   18.8120 C   0  0  0  0  0  0  0  0  0  0  0  0
   25.0870   24.1630   19.5430 N   0  0  0  0  0  0  0  0  0  0  0  0
  2  5  2  0  0  0  0
  2  1  1  0  0  0  0
  3  2  1  0  0  0  0
  4  3  1  0  0  0  0
  6  3  1  0  0  0  0
  7 30  1  0  0  0  0
  7  6  1  1  0  0  0
  8 28  1  1  0  0  0
  8  7  1  0  0  0  0
  9  8  1  6  0  0  0
 10 15  1  6  0  0  0
 10 17  1  0  0  0  0
 10 12  1  0  0  0  0
 11 10  1  0  0  0  0
 11 13  1  0  0  0  0
 12  9  1  0  0  0  0
 13 21  1  6  0  0  0
 13 14  1  0  0  0  0
 14  9  1  0  0  0  0
 14 23  1  1  0  0  0
 15 16  1  0  0  0  0
 17 19  1  0  0  0  0
 18 17  2  0  0  0  0
 19 20  1  0  0  0  0
 21 22  1  0  0  0  0
 23 24  1  0  0  0  0
 23 25  1  0  0  0  0
 24 26  1  0  0  0  0
 27 24  2  0  0  0  0
 29 28  1  0  0  0  0
 31 30  1  0  0  0  0
 32  1  1  0  0  0  0
 33 32  1  0  0  0  0
 34 33  2  0  0  0  0
 35 33  1  0  0  0  0
 36 34  1  0  0  0  0
 37 36  1  0  0  0  0
 37 35  2  0  0  0  0
 38 36  1  0  0  0  0
 39 38  1  0  0  0  0
 40 38  2  0  0  0  0
 40 44  1  0  0  0  0
 41 39  2  0  0  0  0
 42 40  1  0  0  0  0
 43 41  1  0  0  0  0
 43 42  2  0  0  0  0
 44 45  1  0  0  0  0
 45 46  1  0  0  0  0
 46 47  1  0  0  0  0
 47 48  1  0  0  0  0
 49 41  1  0  0  0  0
 49 51  1  0  0  0  0
 50 49  1  0  0  0  0
 52 42  1  0  0  0  0
 53 52  2  0  0  0  0
 54 52  1  0  0  0  0
 55 53  1  0  0  0  0
 56 54  2  0  0  0  0
 57 55  2  0  0  0  0
 57 56  1  0  0  0  0
 58 59  1  0  0  0  0
 60 59  1  0  0  0  0
 60 61  1  0  0  0  0
 61 62  1  0  0  0  0
 62 63  1  0  0  0  0
M  END
>  <REMARK>
 VINA RESULT:    -4.766      4.565      9.639
 INTER + INTRA:         -16.953
 INTER:                 -10.014
 INTRA:                  -6.939
 UNBOUND:                -7.171
 SMILES CCOCCc1c(-c2ccccc2)nc(N)nc1-n1cc(COC(=O)NC[C@@H](O)C(O)[C@@H]2O[C@@](O)(C(=O)O)C[C@H](O)[C@H]2NC(C)=O)nn1
 SMILES IDX 23 1 24 2 26 3 25 5 27 6 28 7 30 8 32 9 34 10 39 11 33 12
 SMILES IDX 40 13 42 14 35 15 36 17 37 18 38 19 41 21 43 23 44 24 45 26
 SMILES IDX 46 27 31 28 29 30 22 32 21 33 20 34 47 35 19 36 48 37 18 38
 SMILES IDX 17 39 6 40 15 41 7 42 14 43 5 44 4 45 3 46 2 47 1 48 16 49
 SMILES IDX 8 52 9 53 13 54 10 55 12 56 11 57
 H PARENT 26 4 35 16 38 20 41 22 43 25 31 29 29 31 16 50 16 51
 Flexibility Score: inf
  4 active torsions:
  status: ('A' for Active; 'I' for Inactive)
    1  A    between atoms: CA   and  CB  
    2  A    between atoms: CB   and  CG  
    3  A    between atoms: CG   and  CD  
    4  A    between atoms: CD   and  CE  

>  <TORSDO>
F 21

>  <BEGIN_>
RES LYS A 131

$$$$
ligand_81_pose_7_2HRL.pdbqt
 OpenBabel07062320523D

  6  5  0  0  0  0  0  0  0  0999 V2000
   33.1930   34.6630    9.2900 C   0  0  0  0  0  0  0  0  0  0  0  0
   32.0600   35.3600   10.0340 C   0  0  0  0  0  0  0  0  0  0  0  0
   30.7340   34.6540    9.9100 C   0  0  0  0  0  0  0  0  0  0  0  0
   30.3250   34.5330    8.4510 C   0  0  0  0  0  0  0  0  0  0  0  0
   28.8140   34.5240    8.3210 C   0  0  0  0  0  0  0  0  0  0  0  0
   28.1820   33.7930    9.4540 N   0  0  0  0  0  0  0  0  0  0  0  0
  1  2  1  0  0  0  0
  3  2  1  0  0  0  0
  4  3  1  0  0  0  0
  5  4  1  0  0  0  0
  5  6  1  0  0  0  0
M  END
>  <EGIN_R>
ES LYS A 135

>  <REMARK>
  4 active torsions:
  status: ('A' for Active; 'I' for Inactive)
    5  A    between atoms: CA   and  CB  
    6  A    between atoms: CB   and  CG  
    7  A    between atoms: CG   and  CD  
    8  A    between atoms: CD   and  CE  

$$$$
