ligand_87_pose_3_2HRL.pdbqt
 OpenBabel07062320523D

 52 54  0  0  1  0  0  0  0  0999 V2000
   30.4320   31.8750   17.0410 C   0  0  0  0  0  0  0  0  0  0  0  0
   30.9650   32.5870   15.8330 C   0  0  2  0  0  0  0  0  0  0  0  0
   29.8350   33.2560   15.0590 C   0  0  2  0  0  0  0  0  0  0  0  0
   30.4480   34.3700   14.2130 C   0  0  2  0  0  0  0  0  0  0  0  0
   32.3330   35.7500   14.3460 C   0  0  2  0  0  0  0  0  0  0  0  0
   31.5390   37.0180   14.3550 C   0  0  0  0  0  0  0  0  0  0  0  0
   31.6640   34.6270   14.7070 O   0  0  0  0  0  0  0  0  0  0  0  0
   30.0660   36.8390   14.5010 C   0  0  1  0  0  0  0  0  0  0  0  0
   29.5150   35.5340   14.0320 C   0  0  1  0  0  0  0  0  0  0  0  0
   33.3810   35.8950   15.2590 O   0  0  0  0  0  0  0  0  0  0  0  0
   33.7010   35.0290   15.6110 H   0  0  0  0  0  0  0  0  0  0  0  0
   32.9680   35.4960   13.0350 C   0  0  0  0  0  0  0  0  0  0  0  0
   32.7150   36.2440   12.0670 O   0  0  0  0  0  0  0  0  0  0  0  0
   33.8560   34.4520   12.7930 O   0  0  0  0  0  0  0  0  0  0  0  0
   34.4980   34.1360   13.5360 H   0  0  0  0  0  0  0  0  0  0  0  0
   29.7550   37.0570   15.8510 O   0  0  0  0  0  0  0  0  0  0  0  0
   30.5720   37.2820   16.3550 H   0  0  0  0  0  0  0  0  0  0  0  0
   28.9420   35.5580   12.7140 N   0  0  0  0  0  0  0  0  0  0  0  0
   27.6630   35.0450   12.3960 C   0  0  0  0  0  0  0  0  0  0  0  0
   29.4870   35.9790   11.9140 H   0  0  0  0  0  0  0  0  0  0  0  0
   27.0540   35.0580   11.0490 C   0  0  0  0  0  0  0  0  0  0  0  0
   27.0290   34.5510   13.3590 O   0  0  0  0  0  0  0  0  0  0  0  0
   28.8490   33.7530   15.8950 O   0  0  0  0  0  0  0  0  0  0  0  0
   28.3530   32.9820   16.2720 H   0  0  0  0  0  0  0  0  0  0  0  0
   31.6340   31.7640   14.9730 O   0  0  0  0  0  0  0  0  0  0  0  0
   30.9860   31.2850   14.3770 H   0  0  0  0  0  0  0  0  0  0  0  0
   29.6080   30.7630   16.7130 N   0  0  0  0  0  0  0  0  0  0  0  0
   28.2530   30.6260   17.0590 C   0  0  0  0  0  0  0  0  0  0  0  0
   30.0360   29.9550   16.1600 H   0  0  0  0  0  0  0  0  0  0  0  0
   27.6330   31.4880   17.7090 O   0  0  0  0  0  0  0  0  0  0  0  0
   27.5560   29.4700   16.6570 O   0  0  0  0  0  0  0  0  0  0  0  0
   26.2180   29.3080   17.0840 C   0  0  0  0  0  0  0  0  0  0  0  0
   25.2880   29.6460   16.0060 C   0  0  0  0  0  0  0  0  0  0  0  0
   24.0060   29.1280   15.8550 C   0  0  0  0  0  0  0  0  0  0  0  0
   25.4870   30.4870   14.9930 N   0  0  0  0  0  0  0  0  0  0  0  0
   23.4780   29.6770   14.7540 N   0  0  0  0  0  0  0  0  0  0  0  0
   24.3890   30.4870   14.2600 N   0  0  0  0  0  0  0  0  0  0  0  0
   22.1700   29.4510   14.1930 C   0  0  1  0  0  0  0  0  0  0  0  0
   21.2060   30.4920   14.7610 C   0  0  0  0  0  0  0  0  0  0  0  0
   22.2810   29.6910   12.7030 C   0  0  0  0  0  0  0  0  0  0  0  0
   19.9140   30.4170   13.9940 C   0  0  1  0  0  0  0  0  0  0  0  0
   20.9270   29.8080   12.0830 C   0  0  2  0  0  0  0  0  0  0  0  0
   20.1240   30.8580   12.6280 N   0  0  0  0  0  0  0  0  0  0  0  0
   19.5110   28.9680   13.7910 C   0  0  0  0  0  0  0  0  0  0  0  0
   20.1380   28.5580   12.4940 C   0  0  0  0  0  0  0  0  0  0  0  0
   20.7250   32.1580   12.5440 C   0  0  0  0  0  0  0  0  0  0  0  0
   29.8670   25.5550   16.9770 C   0  0  0  0  0  0  0  0  0  0  0  0
   28.3450   25.7220   17.0260 C   0  0  0  0  0  0  0  0  0  0  0  0
   27.6010   24.4020   16.8920 C   0  0  0  0  0  0  0  0  0  0  0  0
   26.1380   24.5420   17.2080 C   0  0  0  0  0  0  0  0  0  0  0  0
   25.5890   23.2000   17.6820 C   0  0  0  0  0  0  0  0  0  0  0  0
   25.5430   23.1520   19.1620 N   0  0  0  0  0  0  0  0  0  0  0  0
  2  1  1  1  0  0  0
  3  2  1  0  0  0  0
  3 23  1  1  0  0  0
  4  7  1  0  0  0  0
  4  3  1  1  0  0  0
  5 12  1  6  0  0  0
  5  6  1  0  0  0  0
  5  7  1  0  0  0  0
  5 10  1  0  0  0  0
  6  8  1  0  0  0  0
  8 16  1  1  0  0  0
  9 18  1  6  0  0  0
  9  4  1  0  0  0  0
  9  8  1  0  0  0  0
 10 11  1  0  0  0  0
 13 12  2  0  0  0  0
 14 12  1  0  0  0  0
 14 15  1  0  0  0  0
 16 17  1  0  0  0  0
 19 18  1  0  0  0  0
 19 22  2  0  0  0  0
 20 18  1  0  0  0  0
 21 19  1  0  0  0  0
 23 24  1  0  0  0  0
 25  2  1  0  0  0  0
 26 25  1  0  0  0  0
 27  1  1  0  0  0  0
 27 28  1  0  0  0  0
 28 30  2  0  0  0  0
 29 27  1  0  0  0  0
 31 28  1  0  0  0  0
 31 32  1  0  0  0  0
 33 32  1  0  0  0  0
 34 33  2  0  0  0  0
 35 33  1  0  0  0  0
 36 34  1  0  0  0  0
 37 36  1  0  0  0  0
 37 35  2  0  0  0  0
 38 40  1  6  0  0  0
 38 36  1  0  0  0  0
 38 39  1  0  0  0  0
 41 44  1  6  0  0  0
 41 39  1  0  0  0  0
 42 45  1  1  0  0  0
 42 43  1  0  0  0  0
 42 40  1  0  0  0  0
 43 41  1  0  0  0  0
 45 44  1  0  0  0  0
 46 43  1  0  0  0  0
 47 48  1  0  0  0  0
 49 48  1  0  0  0  0
 49 50  1  0  0  0  0
 50 51  1  0  0  0  0
 51 52  1  0  0  0  0
M  END
>  <REMARK>
 VINA RESULT:    -5.460      4.887      9.000
 INTER + INTRA:         -14.951
 INTER:                  -9.552
 INTRA:                  -5.400
 UNBOUND:                -5.502
 SMILES CC(=O)N[C@@H]1[C@@H](O)C[C@](O)(C(=O)O)O[C@H]1C(O)[C@H](O)CNC(=O)OCc1cn([C@@H]2C[C@H]3CC[C@@H](C2)N3C)nn1
 SMILES IDX 20 1 18 2 16 3 15 4 9 5 8 6 14 7 6 8 5 9 10 10 11 12 12 13
 SMILES IDX 13 14 7 16 4 18 2 19 1 21 3 22 17 23 19 25 21 27 22 28 23 30
 SMILES IDX 24 31 25 32 26 33 27 34 39 35 28 36 38 37 29 38 35 39 30 40
 SMILES IDX 34 41 31 42 36 43 33 44 32 45 37 46
 H PARENT 10 11 13 15 7 17 4 20 17 24 19 26 21 29
 Flexibility Score: inf
  4 active torsions:
  status: ('A' for Active; 'I' for Inactive)
    1  A    between atoms: CA   and  CB  
    2  A    between atoms: CB   and  CG  
    3  A    between atoms: CG   and  CD  
    4  A    between atoms: CD   and  CE  

>  <TORSDO>
F 15

>  <BEGIN_>
RES LYS A 131

$$$$
ligand_87_pose_3_2HRL.pdbqt
 OpenBabel07062320523D

  6  5  0  0  0  0  0  0  0  0999 V2000
   33.1930   34.6630    9.2900 C   0  0  0  0  0  0  0  0  0  0  0  0
   32.0600   35.3600   10.0340 C   0  0  0  0  0  0  0  0  0  0  0  0
   30.8970   35.7300    9.1500 C   0  0  0  0  0  0  0  0  0  0  0  0
   30.4080   34.5190    8.3710 C   0  0  0  0  0  0  0  0  0  0  0  0
   28.9610   34.7010    7.9570 C   0  0  0  0  0  0  0  0  0  0  0  0
   28.8590   35.4610    6.6800 N   0  0  0  0  0  0  0  0  0  0  0  0
  1  2  1  0  0  0  0
  3  2  1  0  0  0  0
  4  3  1  0  0  0  0
  5  4  1  0  0  0  0
  6  5  1  0  0  0  0
M  END
>  <EGIN_R>
ES LYS A 135

>  <REMARK>
  4 active torsions:
  status: ('A' for Active; 'I' for Inactive)
    5  A    between atoms: CA   and  CB  
    6  A    between atoms: CB   and  CG  
    7  A    between atoms: CG   and  CD  
    8  A    between atoms: CD   and  CE  

$$$$
