ligand_70_pose_5_2HRL.pdbqt
 OpenBabel07062320523D

 53 55  0  0  1  0  0  0  0  0999 V2000
   26.6550   39.1690    6.8630 C   0  0  0  0  0  0  0  0  0  0  0  0
   27.6170   38.0800    6.4770 C   0  0  2  0  0  0  0  0  0  0  0  0
   29.0310   38.5570    6.2860 C   0  0  1  0  0  0  0  0  0  0  0  0
   29.8510   38.5920    7.5430 C   0  0  2  0  0  0  0  0  0  0  0  0
   29.6170   39.3970    9.7050 C   0  0  2  0  0  0  0  0  0  0  0  0
   31.0650   39.0620    9.9610 C   0  0  0  0  0  0  0  0  0  0  0  0
   29.0660   38.6650    8.6840 O   0  0  0  0  0  0  0  0  0  0  0  0
   31.8710   39.2270    8.7150 C   0  0  1  0  0  0  0  0  0  0  0  0
   30.9740   39.5700    7.5050 C   0  0  1  0  0  0  0  0  0  0  0  0
   29.5220   40.7750    9.5330 O   0  0  0  0  0  0  0  0  0  0  0  0
   28.7520   41.0450    8.9990 H   0  0  0  0  0  0  0  0  0  0  0  0
   28.8650   39.0650   10.9520 C   0  0  0  0  0  0  0  0  0  0  0  0
   29.5090   38.5820   11.9170 O   0  0  0  0  0  0  0  0  0  0  0  0
   27.5020   39.2670   11.0770 O   0  0  0  0  0  0  0  0  0  0  0  0
   26.9510   39.5310   10.2550 H   0  0  0  0  0  0  0  0  0  0  0  0
   32.8360   40.2380    8.8750 O   0  0  0  0  0  0  0  0  0  0  0  0
   33.0270   40.6570    8.0020 H   0  0  0  0  0  0  0  0  0  0  0  0
   31.7520   39.3180    6.2880 N   0  0  0  0  0  0  0  0  0  0  0  0
   32.4920   40.3260    5.6180 C   0  0  0  0  0  0  0  0  0  0  0  0
   31.7740   38.3660    5.8810 H   0  0  0  0  0  0  0  0  0  0  0  0
   33.2720   40.0520    4.3800 C   0  0  0  0  0  0  0  0  0  0  0  0
   32.5100   41.5020    6.0600 O   0  0  0  0  0  0  0  0  0  0  0  0
   29.6170   37.7130    5.3220 O   0  0  0  0  0  0  0  0  0  0  0  0
   29.0280   37.7450    4.5280 H   0  0  0  0  0  0  0  0  0  0  0  0
   27.1590   37.3910    5.3360 O   0  0  0  0  0  0  0  0  0  0  0  0
   26.1530   37.4470    5.4040 H   0  0  0  0  0  0  0  0  0  0  0  0
   26.2240   38.9700    8.2260 N   0  0  0  0  0  0  0  0  0  0  0  0
   25.5490   37.8130    8.6640 C   0  0  0  0  0  0  0  0  0  0  0  0
   26.4010   39.7010    8.9710 H   0  0  0  0  0  0  0  0  0  0  0  0
   25.2790   36.8760    7.8840 O   0  0  0  0  0  0  0  0  0  0  0  0
   25.1400   37.6380    9.9930 O   0  0  0  0  0  0  0  0  0  0  0  0
   24.5500   36.3950   10.4030 C   0  0  0  0  0  0  0  0  0  0  0  0
   25.3580   35.7710   11.4710 C   0  0  0  0  0  0  0  0  0  0  0  0
   26.7090   35.7960   11.6290 C   0  0  0  0  0  0  0  0  0  0  0  0
   24.8500   35.0600   12.4830 N   0  0  0  0  0  0  0  0  0  0  0  0
   26.9720   35.0780   12.7600 N   0  0  0  0  0  0  0  0  0  0  0  0
   25.8380   34.6440   13.2580 N   0  0  0  0  0  0  0  0  0  0  0  0
   28.2510   34.8350   13.3130 C   0  0  0  0  0  0  0  0  0  0  0  0
   28.3500   34.0960   14.4780 C   0  0  0  0  0  0  0  0  0  0  0  0
   29.3660   35.3390   12.6820 C   0  0  0  0  0  0  0  0  0  0  0  0
   29.5640   33.8670   15.0040 N   0  0  0  0  0  0  0  0  0  0  0  0
   30.6150   35.0900   13.2430 C   0  0  0  0  0  0  0  0  0  0  0  0
   30.6880   34.3500   14.4050 C   0  0  0  0  0  0  0  0  0  0  0  0
   31.7350   35.5760   12.6400 C   0  0  0  0  0  0  0  0  0  0  0  0
   31.9260   34.1010   14.9630 C   0  0  0  0  0  0  0  0  0  0  0  0
   32.9890   35.3280   13.1970 C   0  0  0  0  0  0  0  0  0  0  0  0
   33.0750   34.5930   14.3550 C   0  0  0  0  0  0  0  0  0  0  0  0
   29.8670   25.5550   16.9770 C   0  0  0  0  0  0  0  0  0  0  0  0
   28.3450   25.7220   17.0260 C   0  0  0  0  0  0  0  0  0  0  0  0
   27.6010   24.4010   16.9030 C   0  0  0  0  0  0  0  0  0  0  0  0
   26.5830   24.2200   17.9940 C   0  0  0  0  0  0  0  0  0  0  0  0
   25.1890   24.4920   17.4390 C   0  0  0  0  0  0  0  0  0  0  0  0
   24.4480   23.2220   17.2530 N   0  0  0  0  0  0  0  0  0  0  0  0
  1 27  1  0  0  0  0
  2  1  1  6  0  0  0
  3 23  1  6  0  0  0
  3  2  1  0  0  0  0
  4  3  1  6  0  0  0
  4  7  1  0  0  0  0
  5 10  1  6  0  0  0
  5  6  1  0  0  0  0
  5 12  1  0  0  0  0
  7  5  1  0  0  0  0
  8 16  1  1  0  0  0
  8  6  1  0  0  0  0
  9 18  1  6  0  0  0
  9  4  1  0  0  0  0
  9  8  1  0  0  0  0
 11 10  1  0  0  0  0
 12 14  1  0  0  0  0
 12 13  2  0  0  0  0
 15 14  1  0  0  0  0
 17 16  1  0  0  0  0
 19 22  2  0  0  0  0
 19 18  1  0  0  0  0
 20 18  1  0  0  0  0
 21 19  1  0  0  0  0
 24 23  1  0  0  0  0
 25 26  1  0  0  0  0
 25  2  1  0  0  0  0
 27 28  1  0  0  0  0
 27 29  1  0  0  0  0
 28 31  1  0  0  0  0
 30 28  2  0  0  0  0
 31 32  1  0  0  0  0
 32 33  1  0  0  0  0
 33 34  2  0  0  0  0
 33 35  1  0  0  0  0
 34 36  1  0  0  0  0
 35 37  2  0  0  0  0
 36 37  1  0  0  0  0
 36 38  1  0  0  0  0
 38 39  2  0  0  0  0
 39 41  1  0  0  0  0
 40 42  2  0  0  0  0
 40 38  1  0  0  0  0
 42 43  1  0  0  0  0
 43 45  1  0  0  0  0
 43 41  2  0  0  0  0
 44 46  2  0  0  0  0
 44 42  1  0  0  0  0
 46 47  1  0  0  0  0
 47 45  2  0  0  0  0
 48 49  1  0  0  0  0
 50 49  1  0  0  0  0
 50 51  1  0  0  0  0
 52 51  1  0  0  0  0
 53 52  1  0  0  0  0
M  END
>  <REMARK>
 VINA RESULT:    -6.089      7.949     12.594
 INTER + INTRA:         -15.071
 INTER:                  -9.255
 INTRA:                  -5.816
 UNBOUND:                -4.533
 SMILES CC(=O)N[C@@H]1[C@@H](O)C[C@](O)(C(=O)O)O[C@H]1C(O)[C@H](O)CNC(=O)OCc1cn(-c2cnc3ccccc3c2)nn1
 SMILES IDX 20 1 18 2 16 3 15 4 9 5 8 6 14 7 6 8 5 9 10 10 11 12 12 13
 SMILES IDX 13 14 7 16 4 18 2 19 1 21 3 22 17 23 19 25 21 27 22 28 23 30
 SMILES IDX 24 31 25 32 26 33 27 34 40 35 28 36 39 37 29 38 30 39 38 40
 SMILES IDX 31 41 37 42 32 43 36 44 33 45 35 46 34 47
 H PARENT 10 11 13 15 7 17 4 20 17 24 19 26 21 29
 Flexibility Score: inf
  4 active torsions:
  status: ('A' for Active; 'I' for Inactive)
    1  A    between atoms: CA   and  CB  
    2  A    between atoms: CB   and  CG  
    3  A    between atoms: CG   and  CD  
    4  A    between atoms: CD   and  CE  

>  <TORSDO>
F 15

>  <BEGIN_>
RES LYS A 131

$$$$
ligand_70_pose_5_2HRL.pdbqt
 OpenBabel07062320523D

  6  5  0  0  0  0  0  0  0  0999 V2000
   33.1930   34.6630    9.2900 C   0  0  0  0  0  0  0  0  0  0  0  0
   32.0600   35.3600   10.0340 C   0  0  0  0  0  0  0  0  0  0  0  0
   30.7840   35.4550    9.2370 C   0  0  0  0  0  0  0  0  0  0  0  0
   30.2260   34.0690    8.9520 C   0  0  0  0  0  0  0  0  0  0  0  0
   28.7260   34.0430    9.1780 C   0  0  0  0  0  0  0  0  0  0  0  0
   28.0070   34.7650    8.0920 N   0  0  0  0  0  0  0  0  0  0  0  0
  1  2  1  0  0  0  0
  3  2  1  0  0  0  0
  4  5  1  0  0  0  0
  4  3  1  0  0  0  0
  6  5  1  0  0  0  0
M  END
>  <EGIN_R>
ES LYS A 135

>  <REMARK>
  4 active torsions:
  status: ('A' for Active; 'I' for Inactive)
    5  A    between atoms: CA   and  CB  
    6  A    between atoms: CB   and  CG  
    7  A    between atoms: CG   and  CD  
    8  A    between atoms: CD   and  CE  

$$$$
