ligand_76_pose_14_2HRL.pdbqt
 OpenBabel07062320523D

 55 56  0  0  1  0  0  0  0  0999 V2000
   28.7380   36.5580   11.6940 O   0  0  0  0  0  0  0  0  0  0  0  0
   28.3320   35.7970   12.7760 C   0  0  0  0  0  0  0  0  0  0  0  0
   29.1570   34.7750   13.2880 N   0  0  0  0  0  0  0  0  0  0  0  0
   30.0760   34.5960   12.8440 H   0  0  0  0  0  0  0  0  0  0  0  0
   27.2210   36.0140   13.3110 O   0  0  0  0  0  0  0  0  0  0  0  0
   28.7680   33.9530   14.4260 C   0  0  0  0  0  0  0  0  0  0  0  0
   29.8460   32.9350   14.7500 C   0  0  2  0  0  0  0  0  0  0  0  0
   29.9560   32.8300   16.2620 C   0  0  1  0  0  0  0  0  0  0  0  0
   29.6850   31.3920   16.7130 C   0  0  2  0  0  0  0  0  0  0  0  0
   27.4330   30.8520   16.4120 C   0  0  2  0  0  0  0  0  0  0  0  0
   27.1750   31.5890   17.6790 C   0  0  0  0  0  0  0  0  0  0  0  0
   28.7170   30.7710   16.0070 O   0  0  0  0  0  0  0  0  0  0  0  0
   28.1850   31.3390   18.7420 C   0  0  1  0  0  0  0  0  0  0  0  0
   29.5910   31.3460   18.2070 C   0  0  1  0  0  0  0  0  0  0  0  0
   26.6940   31.5060   15.3970 O   0  0  0  0  0  0  0  0  0  0  0  0
   26.8380   32.4850   15.4670 H   0  0  0  0  0  0  0  0  0  0  0  0
   26.8090   29.4860   16.5450 C   0  0  0  0  0  0  0  0  0  0  0  0
   27.4730   28.4600   16.8230 O   0  0  0  0  0  0  0  0  0  0  0  0
   25.4360   29.3000   16.3620 O   0  0  0  0  0  0  0  0  0  0  0  0
   24.9560   28.5120   16.8190 H   0  0  0  0  0  0  0  0  0  0  0  0
   28.0090   32.3050   19.7600 O   0  0  0  0  0  0  0  0  0  0  0  0
   28.9000   32.6360   20.0830 H   0  0  0  0  0  0  0  0  0  0  0  0
   30.3680   30.2220   18.7340 N   0  0  0  0  0  0  0  0  0  0  0  0
   30.9590   30.2640   20.0050 C   0  0  0  0  0  0  0  0  0  0  0  0
   30.4570   29.3750   18.0980 H   0  0  0  0  0  0  0  0  0  0  0  0
   31.7330   29.1090   20.4920 C   0  0  0  0  0  0  0  0  0  0  0  0
   30.8370   31.2720   20.7280 O   0  0  0  0  0  0  0  0  0  0  0  0
   31.3160   33.0440   16.5500 O   0  0  0  0  0  0  0  0  0  0  0  0
   31.8560   32.2080   16.4180 H   0  0  0  0  0  0  0  0  0  0  0  0
   31.0600   33.3360   14.2090 O   0  0  0  0  0  0  0  0  0  0  0  0
   30.8770   33.6820   13.3020 H   0  0  0  0  0  0  0  0  0  0  0  0
   28.3620   37.9450   11.7210 C   0  0  0  0  0  0  0  0  0  0  0  0
   28.1290   38.4350   10.3450 C   0  0  0  0  0  0  0  0  0  0  0  0
   28.8460   38.1910    9.1980 C   0  0  0  0  0  0  0  0  0  0  0  0
   27.1140   39.2430    9.9900 N   0  0  0  0  0  0  0  0  0  0  0  0
   28.2570   38.8480    8.1880 N   0  0  0  0  0  0  0  0  0  0  0  0
   27.2290   39.4680    8.6750 N   0  0  0  0  0  0  0  0  0  0  0  0
   28.6740   38.8840    6.7680 C   0  0  0  0  0  0  0  0  0  0  0  0
   27.5540   38.3350    5.9390 C   0  0  2  0  0  0  0  0  0  0  0  0
   26.4120   39.1460    5.9990 O   0  0  0  0  0  0  0  0  0  0  0  0
   26.5860   39.8460    6.6920 H   0  0  0  0  0  0  0  0  0  0  0  0
   27.3640   36.9030    5.9300 C   0  0  0  0  0  0  0  0  0  0  0  0
   28.5240   36.0140    6.0590 C   0  0  0  0  0  0  0  0  0  0  0  0
   28.5700   35.2160    7.2730 C   0  0  0  0  0  0  0  0  0  0  0  0
   27.3570   34.8830    7.8890 C   0  0  0  0  0  0  0  0  0  0  0  0
   29.6980   34.8120    7.9160 C   0  0  0  0  0  0  0  0  0  0  0  0
   27.3300   34.1890    9.0760 C   0  0  0  0  0  0  0  0  0  0  0  0
   29.6920   34.1130    9.1100 C   0  0  0  0  0  0  0  0  0  0  0  0
   28.4880   33.7940    9.7040 C   0  0  0  0  0  0  0  0  0  0  0  0
   29.8670   25.5550   16.9770 C   0  0  0  0  0  0  0  0  0  0  0  0
   28.3450   25.7220   17.0260 C   0  0  0  0  0  0  0  0  0  0  0  0
   27.6030   24.3960   16.9680 C   0  0  0  0  0  0  0  0  0  0  0  0
   26.1410   24.5500   17.2840 C   0  0  0  0  0  0  0  0  0  0  0  0
   25.6860   23.3940   18.1680 C   0  0  0  0  0  0  0  0  0  0  0  0
   24.8800   22.4270   17.3850 N   0  0  0  0  0  0  0  0  0  0  0  0
  1 32  1  0  0  0  0
  1  2  1  0  0  0  0
  2  3  1  0  0  0  0
  2  5  2  0  0  0  0
  3  6  1  0  0  0  0
  4  3  1  0  0  0  0
  7  6  1  1  0  0  0
  7  8  1  0  0  0  0
  8 28  1  6  0  0  0
  9  8  1  6  0  0  0
  9 14  1  0  0  0  0
 10 15  1  6  0  0  0
 10 17  1  0  0  0  0
 10 11  1  0  0  0  0
 11 13  1  0  0  0  0
 12 10  1  0  0  0  0
 12  9  1  0  0  0  0
 13 21  1  1  0  0  0
 14 23  1  6  0  0  0
 14 13  1  0  0  0  0
 15 16  1  0  0  0  0
 17 18  2  0  0  0  0
 19 17  1  0  0  0  0
 19 20  1  0  0  0  0
 21 22  1  0  0  0  0
 23 24  1  0  0  0  0
 24 26  1  0  0  0  0
 24 27  2  0  0  0  0
 25 23  1  0  0  0  0
 29 28  1  0  0  0  0
 30  7  1  0  0  0  0
 31 30  1  0  0  0  0
 33 32  1  0  0  0  0
 34 33  2  0  0  0  0
 35 33  1  0  0  0  0
 36 37  1  0  0  0  0
 36 34  1  0  0  0  0
 37 35  2  0  0  0  0
 38 36  1  0  0  0  0
 39 42  1  1  0  0  0
 39 40  1  0  0  0  0
 39 38  1  0  0  0  0
 40 41  1  0  0  0  0
 42 43  1  0  0  0  0
 43 44  1  0  0  0  0
 44 45  2  0  0  0  0
 44 46  1  0  0  0  0
 45 47  1  0  0  0  0
 46 48  2  0  0  0  0
 47 49  2  0  0  0  0
 48 49  1  0  0  0  0
 50 51  1  0  0  0  0
 52 51  1  0  0  0  0
 52 53  1  0  0  0  0
 53 54  1  0  0  0  0
 55 54  1  0  0  0  0
M  END
>  <REMARK>
 VINA RESULT:    -4.905      4.187      8.575
 INTER + INTRA:         -16.550
 INTER:                 -12.669
 INTRA:                  -3.881
 UNBOUND:                -6.771
 SMILES CC(=O)N[C@@H]1[C@@H](O)C[C@](O)(C(=O)O)O[C@H]1C(O)[C@H](O)CNC(=O)OCc1cn(CC(O)CCc2ccccc2)nn1
 SMILES IDX 24 1 22 2 21 3 23 5 20 6 18 7 16 8 15 9 9 10 8 11 14 12 6 13
 SMILES IDX 5 14 10 15 11 17 12 18 13 19 7 21 4 23 2 24 1 26 3 27 17 28
 SMILES IDX 19 30 25 32 26 33 27 34 41 35 28 36 40 37 29 38 30 39 31 40
 SMILES IDX 32 42 33 43 34 44 35 45 39 46 36 47 38 48 37 49
 H PARENT 21 4 10 16 13 20 7 22 4 25 17 29 19 31 31 41
 Flexibility Score: inf
  4 active torsions:
  status: ('A' for Active; 'I' for Inactive)
    1  A    between atoms: CA   and  CB  
    2  A    between atoms: CB   and  CG  
    3  A    between atoms: CG   and  CD  
    4  A    between atoms: CD   and  CE  

>  <TORSDO>
F 20

>  <BEGIN_>
RES LYS A 131

$$$$
ligand_76_pose_14_2HRL.pdbqt
 OpenBabel07062320523D

  6  5  0  0  0  0  0  0  0  0999 V2000
   33.1930   34.6630    9.2900 C   0  0  0  0  0  0  0  0  0  0  0  0
   32.0600   35.3600   10.0340 C   0  0  0  0  0  0  0  0  0  0  0  0
   32.2350   35.3640   11.5310 C   0  0  0  0  0  0  0  0  0  0  0  0
   32.2490   36.7870   12.0660 C   0  0  0  0  0  0  0  0  0  0  0  0
   32.0850   36.7910   13.5740 C   0  0  0  0  0  0  0  0  0  0  0  0
   31.1980   37.9030   14.0140 N   0  0  0  0  0  0  0  0  0  0  0  0
  1  2  1  0  0  0  0
  2  3  1  0  0  0  0
  3  4  1  0  0  0  0
  4  5  1  0  0  0  0
  5  6  1  0  0  0  0
M  END
>  <EGIN_R>
ES LYS A 135

>  <REMARK>
  4 active torsions:
  status: ('A' for Active; 'I' for Inactive)
    5  A    between atoms: CA   and  CB  
    6  A    between atoms: CB   and  CG  
    7  A    between atoms: CG   and  CD  
    8  A    between atoms: CD   and  CE  

$$$$
