ligand_14_pose_19_2HRL.pdbqt
 OpenBabel07062320523D

 50 51  0  0  1  0  0  0  0  0999 V2000
   29.1060   39.2090    8.0510 N   0  0  0  0  0  0  0  0  0  0  0  0
   30.4540   39.6080    8.1030 C   0  0  0  0  0  0  0  0  0  0  0  0
   31.0980   39.7910    7.0620 O   0  0  0  0  0  0  0  0  0  0  0  0
   28.6510   39.0700    9.0160 H   0  0  0  0  0  0  0  0  0  0  0  0
   28.3230   38.9820    6.8790 C   0  0  0  0  0  0  0  0  0  0  0  0
   26.8560   38.9960    7.2000 C   0  0  2  0  0  0  0  0  0  0  0  0
   26.3970   37.6530    7.7590 C   0  0  1  0  0  0  0  0  0  0  0  0
   25.7160   37.9550    9.1060 C   0  0  2  0  0  0  0  0  0  0  0  0
   26.3510   36.5280   10.8560 C   0  0  2  0  0  0  0  0  0  0  0  0
   25.4030   35.5250   10.2290 C   0  0  0  0  0  0  0  0  0  0  0  0
   26.5440   37.6640   10.1330 O   0  0  0  0  0  0  0  0  0  0  0  0
   24.1050   36.1760    9.8970 C   0  0  1  0  0  0  0  0  0  0  0  0
   24.3200   37.4520    9.1510 C   0  0  1  0  0  0  0  0  0  0  0  0
   27.6020   35.8630   10.8810 O   0  0  0  0  0  0  0  0  0  0  0  0
   28.1850   36.3270   11.5550 H   0  0  0  0  0  0  0  0  0  0  0  0
   25.9910   36.8020   12.2670 C   0  0  0  0  0  0  0  0  0  0  0  0
   25.2780   35.9870   12.8920 O   0  0  0  0  0  0  0  0  0  0  0  0
   26.4330   37.9450   12.9060 O   0  0  0  0  0  0  0  0  0  0  0  0
   27.0140   38.5950   12.3950 H   0  0  0  0  0  0  0  0  0  0  0  0
   23.3520   35.2770    9.1500 O   0  0  0  0  0  0  0  0  0  0  0  0
   23.7370   34.3620    9.2210 H   0  0  0  0  0  0  0  0  0  0  0  0
   23.3900   38.4960    9.5810 N   0  0  0  0  0  0  0  0  0  0  0  0
   22.8760   39.4600    8.7060 C   0  0  0  0  0  0  0  0  0  0  0  0
   23.1230   38.4930   10.5830 H   0  0  0  0  0  0  0  0  0  0  0  0
   21.9370   40.4840    9.2320 C   0  0  0  0  0  0  0  0  0  0  0  0
   23.2100   39.4590    7.4770 O   0  0  0  0  0  0  0  0  0  0  0  0
   25.4730   37.1210    6.8660 O   0  0  0  0  0  0  0  0  0  0  0  0
   25.7650   36.3060    6.4220 H   0  0  0  0  0  0  0  0  0  0  0  0
   26.0430   39.4170    6.1720 O   0  0  0  0  0  0  0  0  0  0  0  0
   26.4640   39.4220    5.2810 H   0  0  0  0  0  0  0  0  0  0  0  0
   31.1290   39.8150    9.3090 O   0  0  0  0  0  0  0  0  0  0  0  0
   31.8790   38.7740    9.9010 C   0  0  0  0  0  0  0  0  0  0  0  0
   31.1540   38.1180   11.0180 C   0  0  0  0  0  0  0  0  0  0  0  0
   31.7130   37.4450   12.1060 C   0  0  0  0  0  0  0  0  0  0  0  0
   29.8270   38.0290   11.2230 N   0  0  0  0  0  0  0  0  0  0  0  0
   30.7430   36.9810   12.9130 N   0  0  0  0  0  0  0  0  0  0  0  0
   29.5970   37.3650   12.3290 N   0  0  0  0  0  0  0  0  0  0  0  0
   30.8600   36.2280   14.1450 C   0  0  0  0  0  0  0  0  0  0  0  0
   29.5940   35.5380   14.5280 C   0  0  0  0  0  0  0  0  0  0  0  0
   29.7740   34.3760   15.3630 N   0  0  0  0  0  0  0  0  0  0  0  0
   30.3730   33.3300   14.5510 C   0  0  0  0  0  0  0  0  0  0  0  0
   30.7080   34.6190   16.4450 C   0  0  0  0  0  0  0  0  0  0  0  0
   31.4490   32.6820   15.3600 C   0  0  0  0  0  0  0  0  0  0  0  0
   31.1860   33.2150   16.7540 C   0  0  0  0  0  0  0  0  0  0  0  0
   29.8670   25.5550   16.9770 C   0  0  0  0  0  0  0  0  0  0  0  0
   28.3450   25.7220   17.0260 C   0  0  0  0  0  0  0  0  0  0  0  0
   27.6010   24.4010   16.8990 C   0  0  0  0  0  0  0  0  0  0  0  0
   26.6050   24.2030   18.0080 C   0  0  0  0  0  0  0  0  0  0  0  0
   26.4420   25.5060   18.7840 C   0  0  0  0  0  0  0  0  0  0  0  0
   25.4900   25.3260   19.9060 N   0  0  0  0  0  0  0  0  0  0  0  0
  1  2  1  0  0  0  0
  1  4  1  0  0  0  0
  2 31  1  0  0  0  0
  3  2  2  0  0  0  0
  5  1  1  0  0  0  0
  6  5  1  6  0  0  0
  6  7  1  0  0  0  0
  7 27  1  6  0  0  0
  8  7  1  6  0  0  0
  8 13  1  0  0  0  0
  8 11  1  0  0  0  0
  9 14  1  1  0  0  0
  9 16  1  0  0  0  0
 10  9  1  0  0  0  0
 11  9  1  0  0  0  0
 12 20  1  6  0  0  0
 12 10  1  0  0  0  0
 13 22  1  1  0  0  0
 13 12  1  0  0  0  0
 14 15  1  0  0  0  0
 16 17  2  0  0  0  0
 16 18  1  0  0  0  0
 19 18  1  0  0  0  0
 20 21  1  0  0  0  0
 22 24  1  0  0  0  0
 23 25  1  0  0  0  0
 23 22  1  0  0  0  0
 26 23  2  0  0  0  0
 28 27  1  0  0  0  0
 29  6  1  0  0  0  0
 30 29  1  0  0  0  0
 31 32  1  0  0  0  0
 32 33  1  0  0  0  0
 33 35  1  0  0  0  0
 33 34  2  0  0  0  0
 34 36  1  0  0  0  0
 35 37  2  0  0  0  0
 36 38  1  0  0  0  0
 37 36  1  0  0  0  0
 38 39  1  0  0  0  0
 39 40  1  0  0  0  0
 40 42  1  0  0  0  0
 41 43  1  0  0  0  0
 41 40  1  0  0  0  0
 42 44  1  0  0  0  0
 43 44  1  0  0  0  0
 45 46  1  0  0  0  0
 47 46  1  0  0  0  0
 47 48  1  0  0  0  0
 48 49  1  0  0  0  0
 49 50  1  0  0  0  0
M  END
>  <REMARK>
 VINA RESULT:    -4.085      2.140      5.591
 INTER + INTRA:         -13.542
 INTER:                  -7.548
 INTRA:                  -5.994
 UNBOUND:                -5.994
 SMILES CC(=O)N[C@@H]1[C@@H](O)C[C@](O)(C(=O)O)O[C@H]1C(O)[C@H](O)CNC(=O)OCc1cn(CCN2CCCC2)nn1
 SMILES IDX 21 1 22 2 23 3 20 5 18 6 16 7 15 8 9 9 8 10 14 11 6 12 5 13
 SMILES IDX 10 14 11 16 12 17 13 18 7 20 4 22 2 23 1 25 3 26 17 27 19 29
 SMILES IDX 24 31 25 32 26 33 27 34 37 35 28 36 36 37 29 38 30 39 31 40
 SMILES IDX 32 41 35 42 33 43 34 44
 H PARENT 21 4 10 15 13 19 7 21 4 24 17 28 19 30
 Flexibility Score: inf
  4 active torsions:
  status: ('A' for Active; 'I' for Inactive)
    1  A    between atoms: CA   and  CB  
    2  A    between atoms: CB   and  CG  
    3  A    between atoms: CG   and  CD  
    4  A    between atoms: CD   and  CE  

>  <TORSDO>
F 17

>  <BEGIN_>
RES LYS A 131

$$$$
ligand_14_pose_19_2HRL.pdbqt
 OpenBabel07062320523D

  6  5  0  0  0  0  0  0  0  0999 V2000
   33.1930   34.6630    9.2900 C   0  0  0  0  0  0  0  0  0  0  0  0
   32.0600   35.3600   10.0340 C   0  0  0  0  0  0  0  0  0  0  0  0
   30.7080   34.7430    9.7870 C   0  0  0  0  0  0  0  0  0  0  0  0
   30.4850   34.5140    8.3000 C   0  0  0  0  0  0  0  0  0  0  0  0
   29.0640   34.8750    7.9130 C   0  0  0  0  0  0  0  0  0  0  0  0
   29.0190   35.5020    6.5630 N   0  0  0  0  0  0  0  0  0  0  0  0
  1  2  1  0  0  0  0
  3  2  1  0  0  0  0
  4  3  1  0  0  0  0
  5  4  1  0  0  0  0
  6  5  1  0  0  0  0
M  END
>  <EGIN_R>
ES LYS A 135

>  <REMARK>
  4 active torsions:
  status: ('A' for Active; 'I' for Inactive)
    5  A    between atoms: CA   and  CB  
    6  A    between atoms: CB   and  CG  
    7  A    between atoms: CG   and  CD  
    8  A    between atoms: CD   and  CE  

$$$$
