ligand_30_pose_9_2HRL.pdbqt
 OpenBabel07062320523D

 57 57  0  0  1  0  0  0  0  0999 V2000
   27.1420   32.6880   16.6230 C   0  0  0  0  0  0  0  0  0  0  0  0
   26.4830   33.2260   15.4650 N   0  0  0  0  0  0  0  0  0  0  0  0
   25.0720   33.7300   13.8620 C   0  0  0  0  0  0  0  0  0  0  0  0
   25.2300   32.9720   14.9900 C   0  0  0  0  0  0  0  0  0  0  0  0
   26.2170   34.4220   13.6760 N   0  0  0  0  0  0  0  0  0  0  0  0
   27.0310   34.1000   14.6450 N   0  0  0  0  0  0  0  0  0  0  0  0
   23.8560   33.7620   13.0220 C   0  0  0  0  0  0  0  0  0  0  0  0
   24.1090   34.4270   11.8030 O   0  0  0  0  0  0  0  0  0  0  0  0
   23.0670   34.9610   11.0570 C   0  0  0  0  0  0  0  0  0  0  0  0
   23.2000   35.2140    9.6660 N   0  0  0  0  0  0  0  0  0  0  0  0
   24.0940   35.0030    9.1740 H   0  0  0  0  0  0  0  0  0  0  0  0
   21.9690   35.2230   11.6580 O   0  0  0  0  0  0  0  0  0  0  0  0
   22.1010   35.7640    8.9360 C   0  0  0  0  0  0  0  0  0  0  0  0
   22.5460   36.6550    7.7960 C   0  0  2  0  0  0  0  0  0  0  0  0
   22.8600   38.0280    8.3080 C   0  0  2  0  0  0  0  0  0  0  0  0
   24.3590   38.2210    8.3850 C   0  0  2  0  0  0  0  0  0  0  0  0
   26.3400   37.2220    7.7160 C   0  0  2  0  0  0  0  0  0  0  0  0
   26.9180   38.0140    8.8680 C   0  0  0  0  0  0  0  0  0  0  0  0
   24.9560   37.1600    7.7590 O   0  0  0  0  0  0  0  0  0  0  0  0
   26.0940   37.7320   10.0930 C   0  0  1  0  0  0  0  0  0  0  0  0
   24.7210   38.3720    9.8410 C   0  0  1  0  0  0  0  0  0  0  0  0
   26.8100   35.9190    7.8530 O   0  0  0  0  0  0  0  0  0  0  0  0
   26.6570   35.3950    7.0340 H   0  0  0  0  0  0  0  0  0  0  0  0
   26.8610   37.7920    6.4730 C   0  0  0  0  0  0  0  0  0  0  0  0
   27.1570   39.0110    6.4320 O   0  0  0  0  0  0  0  0  0  0  0  0
   27.0570   37.0650    5.3060 O   0  0  0  0  0  0  0  0  0  0  0  0
   28.0170   36.9840    4.9350 H   0  0  0  0  0  0  0  0  0  0  0  0
   25.9960   36.3780   10.3300 O   0  0  0  0  0  0  0  0  0  0  0  0
   25.8260   36.2460   11.2960 H   0  0  0  0  0  0  0  0  0  0  0  0
   24.8700   39.7660   10.2020 N   0  0  0  0  0  0  0  0  0  0  0  0
   24.1770   40.2460   11.3390 C   0  0  0  0  0  0  0  0  0  0  0  0
   25.4730   40.4250    9.6490 H   0  0  0  0  0  0  0  0  0  0  0  0
   24.3050   41.6800   11.7450 C   0  0  0  0  0  0  0  0  0  0  0  0
   23.4590   39.4770   12.0050 O   0  0  0  0  0  0  0  0  0  0  0  0
   22.2470   38.1710    9.5570 O   0  0  0  0  0  0  0  0  0  0  0  0
   22.8390   37.9760   10.3040 H   0  0  0  0  0  0  0  0  0  0  0  0
   21.5530   36.7730    6.8230 O   0  0  0  0  0  0  0  0  0  0  0  0
   21.8780   36.4950    5.9460 H   0  0  0  0  0  0  0  0  0  0  0  0
   26.8500   31.2140   16.7130 C   0  0  0  0  0  0  0  0  0  0  0  0
   28.0930   30.3750   16.8000 C   0  0  0  0  0  0  0  0  0  0  0  0
   29.1580   30.8200   15.8290 C   0  0  0  0  0  0  0  0  0  0  0  0
   30.4540   31.0980   16.5840 C   0  0  0  0  0  0  0  0  0  0  0  0
   30.9980   32.4300   16.1400 C   0  0  0  0  0  0  0  0  0  0  0  0
   30.4380   32.8410   14.8090 C   0  0  0  0  0  0  0  0  0  0  0  0
   30.9540   34.1840   14.4120 C   0  0  0  0  0  0  0  0  0  0  0  0
   30.3240   34.6490   13.1020 C   0  0  0  0  0  0  0  0  0  0  0  0
   30.5680   36.1110   12.8420 C   0  0  0  0  0  0  0  0  0  0  0  0
   29.2830   36.6700   12.3190 C   0  0  0  0  0  0  0  0  0  0  0  0
   29.1510   37.8530   11.9420 O   0  0  0  0  0  0  0  0  0  0  0  0
   28.1640   35.8390   12.2410 O   0  0  0  0  0  0  0  0  0  0  0  0
   28.0030   35.1700   12.9740 H   0  0  0  0  0  0  0  0  0  0  0  0
   29.8670   25.5550   16.9770 C   0  0  0  0  0  0  0  0  0  0  0  0
   28.3450   25.7220   17.0260 C   0  0  0  0  0  0  0  0  0  0  0  0
   27.6020   24.3980   16.9280 C   0  0  0  0  0  0  0  0  0  0  0  0
   26.1600   24.5280   17.3330 C   0  0  0  0  0  0  0  0  0  0  0  0
   25.8280   23.4700   18.3800 C   0  0  0  0  0  0  0  0  0  0  0  0
   25.4960   24.1080   19.6760 N   0  0  0  0  0  0  0  0  0  0  0  0
  1 39  1  0  0  0  0
  2  1  1  0  0  0  0
  3  4  2  0  0  0  0
  4  2  1  0  0  0  0
  5  3  1  0  0  0  0
  5  6  2  0  0  0  0
  6  2  1  0  0  0  0
  7  3  1  0  0  0  0
  8  7  1  0  0  0  0
  9 12  2  0  0  0  0
  9  8  1  0  0  0  0
 10  9  1  0  0  0  0
 11 10  1  0  0  0  0
 13 10  1  0  0  0  0
 14 15  1  0  0  0  0
 14 13  1  1  0  0  0
 15 35  1  1  0  0  0
 16 15  1  1  0  0  0
 16 21  1  0  0  0  0
 17 24  1  6  0  0  0
 17 19  1  0  0  0  0
 17 22  1  0  0  0  0
 17 18  1  0  0  0  0
 18 20  1  0  0  0  0
 19 16  1  0  0  0  0
 20 28  1  6  0  0  0
 21 20  1  0  0  0  0
 21 30  1  6  0  0  0
 23 22  1  0  0  0  0
 25 24  2  0  0  0  0
 26 24  1  0  0  0  0
 27 26  1  0  0  0  0
 28 29  1  0  0  0  0
 30 31  1  0  0  0  0
 31 33  1  0  0  0  0
 31 34  2  0  0  0  0
 32 30  1  0  0  0  0
 35 36  1  0  0  0  0
 37 14  1  0  0  0  0
 38 37  1  0  0  0  0
 39 40  1  0  0  0  0
 41 42  1  0  0  0  0
 41 40  1  0  0  0  0
 43 42  1  0  0  0  0
 44 43  1  0  0  0  0
 45 44  1  0  0  0  0
 46 45  1  0  0  0  0
 47 46  1  0  0  0  0
 48 47  1  0  0  0  0
 49 48  2  0  0  0  0
 50 48  1  0  0  0  0
 50 51  1  0  0  0  0
 52 53  1  0  0  0  0
 54 53  1  0  0  0  0
 54 55  1  0  0  0  0
 55 56  1  0  0  0  0
 56 57  1  0  0  0  0
M  END
>  <REMARK>
 VINA RESULT:    -3.733      4.868      9.742
 INTER + INTRA:         -17.051
 INTER:                  -9.727
 INTRA:                  -7.323
 UNBOUND:                -8.298
 SMILES CC(=O)N[C@@H]1[C@@H](O)C[C@](O)(C(=O)O)O[C@H]1C(O)[C@H](O)CNC(=O)OCc1cn(CCCCCCCCCCC(=O)O)nn1
 SMILES IDX 29 1 28 2 26 3 27 4 43 5 42 6 25 7 24 8 22 9 21 10 23 12
 SMILES IDX 20 13 18 14 16 15 15 16 9 17 8 18 14 19 6 20 5 21 10 22
 SMILES IDX 11 24 12 25 13 26 7 28 4 30 2 31 1 33 3 34 17 35 19 37 30 39
 SMILES IDX 31 40 32 41 33 42 34 43 35 44 36 45 37 46 38 47 39 48 40 49
 SMILES IDX 41 50
 H PARENT 21 11 10 23 13 27 7 29 4 32 17 36 19 38 41 51
 Flexibility Score: inf
  4 active torsions:
  status: ('A' for Active; 'I' for Inactive)
    1  A    between atoms: CA   and  CB  
    2  A    between atoms: CB   and  CG  
    3  A    between atoms: CG   and  CD  
    4  A    between atoms: CD   and  CE  

>  <TORSDO>
F 26

>  <BEGIN_>
RES LYS A 131

$$$$
ligand_30_pose_9_2HRL.pdbqt
 OpenBabel07062320523D

  6  5  0  0  0  0  0  0  0  0999 V2000
   33.1930   34.6630    9.2900 C   0  0  0  0  0  0  0  0  0  0  0  0
   32.0600   35.3600   10.0340 C   0  0  0  0  0  0  0  0  0  0  0  0
   30.9600   35.8550    9.1300 C   0  0  0  0  0  0  0  0  0  0  0  0
   30.2090   34.6870    8.5100 C   0  0  0  0  0  0  0  0  0  0  0  0
   29.6670   33.7690    9.5880 C   0  0  0  0  0  0  0  0  0  0  0  0
   28.1800   33.6970    9.5340 N   0  0  0  0  0  0  0  0  0  0  0  0
  1  2  1  0  0  0  0
  3  2  1  0  0  0  0
  4  3  1  0  0  0  0
  4  5  1  0  0  0  0
  6  5  1  0  0  0  0
M  END
>  <EGIN_R>
ES LYS A 135

>  <REMARK>
  4 active torsions:
  status: ('A' for Active; 'I' for Inactive)
    5  A    between atoms: CA   and  CB  
    6  A    between atoms: CB   and  CG  
    7  A    between atoms: CG   and  CD  
    8  A    between atoms: CD   and  CE  

$$$$
