ligand_8_pose_19_2HRL.pdbqt
 OpenBabel07062320523D

 50 51  0  0  1  0  0  0  0  0999 V2000
   32.3310   34.2880   14.5680 C   0  0  0  0  0  0  0  0  0  0  0  0
   31.9970   35.2050   13.4210 C   0  0  2  0  0  0  0  0  0  0  0  0
   30.7130   34.7340   12.8110 C   0  0  1  0  0  0  0  0  0  0  0  0
   29.5650   35.7140   12.8600 C   0  0  2  0  0  0  0  0  0  0  0  0
   28.8700   35.9690   15.0850 C   0  0  2  0  0  0  0  0  0  0  0  0
   27.4600   36.3490   14.6310 C   0  0  0  0  0  0  0  0  0  0  0  0
   29.6910   36.3620   14.0820 O   0  0  0  0  0  0  0  0  0  0  0  0
   27.1290   35.3980   13.5170 C   0  0  1  0  0  0  0  0  0  0  0  0
   28.2420   35.1760   12.5270 C   0  0  1  0  0  0  0  0  0  0  0  0
   28.8450   34.6320   15.3890 O   0  0  0  0  0  0  0  0  0  0  0  0
   28.7380   34.5480   16.3690 H   0  0  0  0  0  0  0  0  0  0  0  0
   29.2000   36.7280   16.3230 C   0  0  0  0  0  0  0  0  0  0  0  0
   30.0490   37.6520   16.2630 O   0  0  0  0  0  0  0  0  0  0  0  0
   28.5920   36.4360   17.5390 O   0  0  0  0  0  0  0  0  0  0  0  0
   28.2070   37.1490   18.1540 H   0  0  0  0  0  0  0  0  0  0  0  0
   26.7930   34.1860   14.1200 O   0  0  0  0  0  0  0  0  0  0  0  0
   25.8460   34.1450   14.3440 H   0  0  0  0  0  0  0  0  0  0  0  0
   27.8230   35.7500   11.2300 N   0  0  0  0  0  0  0  0  0  0  0  0
   27.8180   34.9740   10.0500 C   0  0  0  0  0  0  0  0  0  0  0  0
   27.5170   36.7640   11.1700 H   0  0  0  0  0  0  0  0  0  0  0  0
   27.4030   35.5540    8.7270 C   0  0  0  0  0  0  0  0  0  0  0  0
   28.1740   33.7720   10.1300 O   0  0  0  0  0  0  0  0  0  0  0  0
   30.9390   34.1590   11.5860 O   0  0  0  0  0  0  0  0  0  0  0  0
   31.1330   33.1760   11.6480 H   0  0  0  0  0  0  0  0  0  0  0  0
   33.0110   35.1990   12.4980 O   0  0  0  0  0  0  0  0  0  0  0  0
   32.6800   35.1580   11.5590 H   0  0  0  0  0  0  0  0  0  0  0  0
   31.5840   33.0800   14.6640 N   0  0  0  0  0  0  0  0  0  0  0  0
   31.0380   32.5750   15.8640 C   0  0  0  0  0  0  0  0  0  0  0  0
   31.4050   32.4870   13.7870 H   0  0  0  0  0  0  0  0  0  0  0  0
   31.1690   33.1400   16.9740 O   0  0  0  0  0  0  0  0  0  0  0  0
   30.3090   31.3770   15.8140 O   0  0  0  0  0  0  0  0  0  0  0  0
   29.4640   31.0860   16.9040 C   0  0  0  0  0  0  0  0  0  0  0  0
   28.0670   31.3490   16.4820 C   0  0  0  0  0  0  0  0  0  0  0  0
   27.2740   30.4470   15.7610 C   0  0  0  0  0  0  0  0  0  0  0  0
   27.2700   32.4100   16.6540 N   0  0  0  0  0  0  0  0  0  0  0  0
   26.0630   30.9840   15.5320 N   0  0  0  0  0  0  0  0  0  0  0  0
   26.0890   32.1830   16.0880 N   0  0  0  0  0  0  0  0  0  0  0  0
   24.9850   30.3660   14.8290 C   0  0  0  0  0  0  0  0  0  0  0  0
   24.7490   30.6200   13.4960 C   0  0  0  0  0  0  0  0  0  0  0  0
   24.1340   29.4860   15.4630 C   0  0  0  0  0  0  0  0  0  0  0  0
   23.6900   30.0070   12.8240 C   0  0  0  0  0  0  0  0  0  0  0  0
   23.0810   28.8750   14.7990 C   0  0  0  0  0  0  0  0  0  0  0  0
   24.4530   29.1260   17.3210 Br  0  0  0  0  0  0  0  0  0  0  0  0
   22.8430   29.1270   13.4650 C   0  0  0  0  0  0  0  0  0  0  0  0
   29.8670   25.5550   16.9770 C   0  0  0  0  0  0  0  0  0  0  0  0
   28.3450   25.7220   17.0260 C   0  0  0  0  0  0  0  0  0  0  0  0
   27.6020   24.4000   16.9100 C   0  0  0  0  0  0  0  0  0  0  0  0
   26.5230   24.2640   17.9490 C   0  0  0  0  0  0  0  0  0  0  0  0
   25.1580   24.2680   17.2690 C   0  0  0  0  0  0  0  0  0  0  0  0
   24.5820   22.9020   17.2530 N   0  0  0  0  0  0  0  0  0  0  0  0
  1 27  1  0  0  0  0
  2  1  1  1  0  0  0
  3 23  1  6  0  0  0
  3  2  1  0  0  0  0
  4  3  1  1  0  0  0
  4  7  1  0  0  0  0
  5 10  1  1  0  0  0
  5 12  1  0  0  0  0
  6  5  1  0  0  0  0
  7  5  1  0  0  0  0
  8 16  1  1  0  0  0
  8  6  1  0  0  0  0
  9 18  1  6  0  0  0
  9  4  1  0  0  0  0
  9  8  1  0  0  0  0
 10 11  1  0  0  0  0
 12 14  1  0  0  0  0
 13 12  2  0  0  0  0
 14 15  1  0  0  0  0
 16 17  1  0  0  0  0
 19 22  2  0  0  0  0
 19 18  1  0  0  0  0
 20 18  1  0  0  0  0
 21 19  1  0  0  0  0
 23 24  1  0  0  0  0
 25  2  1  0  0  0  0
 26 25  1  0  0  0  0
 27 28  1  0  0  0  0
 28 30  2  0  0  0  0
 29 27  1  0  0  0  0
 31 28  1  0  0  0  0
 31 32  1  0  0  0  0
 33 35  1  0  0  0  0
 33 32  1  0  0  0  0
 34 33  2  0  0  0  0
 36 34  1  0  0  0  0
 36 37  1  0  0  0  0
 37 35  2  0  0  0  0
 38 40  1  0  0  0  0
 38 36  1  0  0  0  0
 39 38  2  0  0  0  0
 40 43  1  0  0  0  0
 41 44  2  0  0  0  0
 41 39  1  0  0  0  0
 42 40  2  0  0  0  0
 44 42  1  0  0  0  0
 45 46  1  0  0  0  0
 47 46  1  0  0  0  0
 47 48  1  0  0  0  0
 49 48  1  0  0  0  0
 50 49  1  0  0  0  0
M  END
>  <REMARK>
 VINA RESULT:    -5.386      4.367      8.781
 INTER + INTRA:         -13.717
 INTER:                  -8.880
 INTRA:                  -4.837
 UNBOUND:                -4.396
 SMILES CC(=O)N[C@@H]1[C@@H](O)C[C@](O)(C(=O)O)O[C@H]1C(O)[C@H](O)CNC(=O)OCc1cn(-c2ccccc2Br)nn1
 SMILES IDX 20 1 18 2 16 3 15 4 9 5 8 6 14 7 6 8 5 9 10 10 11 12 12 13
 SMILES IDX 13 14 7 16 4 18 2 19 1 21 3 22 17 23 19 25 21 27 22 28 23 30
 SMILES IDX 24 31 25 32 26 33 27 34 37 35 28 36 36 37 29 38 30 39 34 40
 SMILES IDX 31 41 33 42 35 43 32 44
 H PARENT 10 11 13 15 7 17 4 20 17 24 19 26 21 29
 Flexibility Score: inf
  4 active torsions:
  status: ('A' for Active; 'I' for Inactive)
    1  A    between atoms: CA   and  CB  
    2  A    between atoms: CB   and  CG  
    3  A    between atoms: CG   and  CD  
    4  A    between atoms: CD   and  CE  

>  <TORSDO>
F 15

>  <BEGIN_>
RES LYS A 131

$$$$
ligand_8_pose_19_2HRL.pdbqt
 OpenBabel07062320523D

  6  5  0  0  0  0  0  0  0  0999 V2000
   33.1930   34.6630    9.2900 C   0  0  0  0  0  0  0  0  0  0  0  0
   32.0600   35.3600   10.0340 C   0  0  0  0  0  0  0  0  0  0  0  0
   31.0790   36.0540    9.1250 C   0  0  0  0  0  0  0  0  0  0  0  0
   30.7970   37.4650    9.6170 C   0  0  0  0  0  0  0  0  0  0  0  0
   29.9630   38.2260    8.6040 C   0  0  0  0  0  0  0  0  0  0  0  0
   30.8100   39.1430    7.7920 N   0  0  0  0  0  0  0  0  0  0  0  0
  1  2  1  0  0  0  0
  3  4  1  0  0  0  0
  3  2  1  0  0  0  0
  5  4  1  0  0  0  0
  6  5  1  0  0  0  0
M  END
>  <EGIN_R>
ES LYS A 135

>  <REMARK>
  4 active torsions:
  status: ('A' for Active; 'I' for Inactive)
    5  A    between atoms: CA   and  CB  
    6  A    between atoms: CB   and  CG  
    7  A    between atoms: CG   and  CD  
    8  A    between atoms: CD   and  CE  

$$$$
