ligand_76_pose_6_2HRL.pdbqt
 OpenBabel07062320523D

 55 56  0  0  1  0  0  0  0  0999 V2000
   27.9630   36.5950   11.6980 O   0  0  0  0  0  0  0  0  0  0  0  0
   27.2280   35.9680   12.6890 C   0  0  0  0  0  0  0  0  0  0  0  0
   27.2470   36.4490   14.0140 N   0  0  0  0  0  0  0  0  0  0  0  0
   27.8200   37.2830   14.2410 H   0  0  0  0  0  0  0  0  0  0  0  0
   26.5370   34.9610   12.4130 O   0  0  0  0  0  0  0  0  0  0  0  0
   26.4870   35.8210   15.0850 C   0  0  0  0  0  0  0  0  0  0  0  0
   27.4100   35.3260   16.1840 C   0  0  2  0  0  0  0  0  0  0  0  0
   28.2120   34.1570   15.6360 C   0  0  1  0  0  0  0  0  0  0  0  0
   28.6640   33.2440   16.7790 C   0  0  2  0  0  0  0  0  0  0  0  0
   30.6020   34.0800   17.7770 C   0  0  2  0  0  0  0  0  0  0  0  0
   31.3460   33.4790   16.6370 C   0  0  0  0  0  0  0  0  0  0  0  0
   29.2650   33.8970   17.7950 O   0  0  0  0  0  0  0  0  0  0  0  0
   30.8630   32.1290   16.2430 C   0  0  1  0  0  0  0  0  0  0  0  0
   29.3610   32.0450   16.2150 C   0  0  1  0  0  0  0  0  0  0  0  0
   30.8510   35.4740   17.7430 O   0  0  0  0  0  0  0  0  0  0  0  0
   31.1750   35.7260   16.8410 H   0  0  0  0  0  0  0  0  0  0  0  0
   31.2430   33.5890   19.0490 C   0  0  0  0  0  0  0  0  0  0  0  0
   32.2840   34.0980   19.5270 O   0  0  0  0  0  0  0  0  0  0  0  0
   30.6950   32.5220   19.7670 O   0  0  0  0  0  0  0  0  0  0  0  0
   31.3110   31.8500   20.2450 H   0  0  0  0  0  0  0  0  0  0  0  0
   31.4270   31.8020   14.9870 O   0  0  0  0  0  0  0  0  0  0  0  0
   31.8290   30.8830   15.0150 H   0  0  0  0  0  0  0  0  0  0  0  0
   28.8830   30.8220   16.8640 N   0  0  0  0  0  0  0  0  0  0  0  0
   27.7390   30.1470   16.4160 C   0  0  0  0  0  0  0  0  0  0  0  0
   29.4530   30.4790   17.6930 H   0  0  0  0  0  0  0  0  0  0  0  0
   27.2960   28.9210   17.1030 C   0  0  0  0  0  0  0  0  0  0  0  0
   27.0910   30.5740   15.4420 O   0  0  0  0  0  0  0  0  0  0  0  0
   27.2910   33.3860   14.9050 O   0  0  0  0  0  0  0  0  0  0  0  0
   27.4350   33.4810   13.9150 H   0  0  0  0  0  0  0  0  0  0  0  0
   26.6660   34.9210   17.2850 O   0  0  0  0  0  0  0  0  0  0  0  0
   25.9370   34.3460   16.9510 H   0  0  0  0  0  0  0  0  0  0  0  0
   27.6660   37.9840   11.4760 C   0  0  0  0  0  0  0  0  0  0  0  0
   27.8630   38.3240   10.0500 C   0  0  0  0  0  0  0  0  0  0  0  0
   26.9280   38.4940    9.0560 C   0  0  0  0  0  0  0  0  0  0  0  0
   29.0620   38.5320    9.4780 N   0  0  0  0  0  0  0  0  0  0  0  0
   27.5730   38.7980    7.9210 N   0  0  0  0  0  0  0  0  0  0  0  0
   28.8400   38.8170    8.1880 N   0  0  0  0  0  0  0  0  0  0  0  0
   26.9840   39.0670    6.5900 C   0  0  0  0  0  0  0  0  0  0  0  0
   27.6420   38.1610    5.5960 C   0  0  2  0  0  0  0  0  0  0  0  0
   27.4960   38.6310    4.2830 O   0  0  0  0  0  0  0  0  0  0  0  0
   27.8960   39.5470    4.2530 H   0  0  0  0  0  0  0  0  0  0  0  0
   27.5450   36.7370    5.8160 C   0  0  0  0  0  0  0  0  0  0  0  0
   28.7610   35.9540    6.0660 C   0  0  0  0  0  0  0  0  0  0  0  0
   28.7710   35.1930    7.3050 C   0  0  0  0  0  0  0  0  0  0  0  0
   27.5440   34.9190    7.9210 C   0  0  0  0  0  0  0  0  0  0  0  0
   29.8810   34.7720    7.9690 C   0  0  0  0  0  0  0  0  0  0  0  0
   27.4850   34.2630    9.1280 C   0  0  0  0  0  0  0  0  0  0  0  0
   29.8430   34.1100    9.1840 C   0  0  0  0  0  0  0  0  0  0  0  0
   28.6250   33.8490    9.7770 C   0  0  0  0  0  0  0  0  0  0  0  0
   29.8670   25.5550   16.9770 C   0  0  0  0  0  0  0  0  0  0  0  0
   28.3450   25.7220   17.0260 C   0  0  0  0  0  0  0  0  0  0  0  0
   27.6010   24.4010   16.9040 C   0  0  0  0  0  0  0  0  0  0  0  0
   26.1530   24.5280   17.2880 C   0  0  0  0  0  0  0  0  0  0  0  0
   25.9670   24.0680   18.7300 C   0  0  0  0  0  0  0  0  0  0  0  0
   25.5560   25.2040   19.5880 N   0  0  0  0  0  0  0  0  0  0  0  0
  1  2  1  0  0  0  0
  2  3  1  0  0  0  0
  3  4  1  0  0  0  0
  3  6  1  0  0  0  0
  5  2  2  0  0  0  0
  7  6  1  6  0  0  0
  7 30  1  0  0  0  0
  8 28  1  6  0  0  0
  8  7  1  0  0  0  0
  9  8  1  6  0  0  0
  9 12  1  0  0  0  0
 10 15  1  6  0  0  0
 10 12  1  0  0  0  0
 10 17  1  0  0  0  0
 11 10  1  0  0  0  0
 13 21  1  6  0  0  0
 13 11  1  0  0  0  0
 14 13  1  0  0  0  0
 14  9  1  0  0  0  0
 14 23  1  1  0  0  0
 16 15  1  0  0  0  0
 17 18  2  0  0  0  0
 17 19  1  0  0  0  0
 19 20  1  0  0  0  0
 21 22  1  0  0  0  0
 23 25  1  0  0  0  0
 24 23  1  0  0  0  0
 24 26  1  0  0  0  0
 27 24  2  0  0  0  0
 29 28  1  0  0  0  0
 31 30  1  0  0  0  0
 32  1  1  0  0  0  0
 33 32  1  0  0  0  0
 34 33  2  0  0  0  0
 35 33  1  0  0  0  0
 36 37  1  0  0  0  0
 36 34  1  0  0  0  0
 37 35  2  0  0  0  0
 38 36  1  0  0  0  0
 39 42  1  6  0  0  0
 39 38  1  0  0  0  0
 40 39  1  0  0  0  0
 41 40  1  0  0  0  0
 42 43  1  0  0  0  0
 43 44  1  0  0  0  0
 44 45  2  0  0  0  0
 44 46  1  0  0  0  0
 45 47  1  0  0  0  0
 46 48  2  0  0  0  0
 47 49  2  0  0  0  0
 48 49  1  0  0  0  0
 50 51  1  0  0  0  0
 52 51  1  0  0  0  0
 52 53  1  0  0  0  0
 53 54  1  0  0  0  0
 54 55  1  0  0  0  0
M  END
>  <REMARK>
 VINA RESULT:    -5.095      3.735      8.114
 INTER + INTRA:         -16.929
 INTER:                 -12.392
 INTRA:                  -4.537
 UNBOUND:                -6.771
 SMILES CC(=O)N[C@@H]1[C@@H](O)C[C@](O)(C(=O)O)O[C@H]1C(O)[C@H](O)CNC(=O)OCc1cn(CC(O)CCc2ccccc2)nn1
 SMILES IDX 24 1 22 2 21 3 23 5 20 6 18 7 16 8 15 9 9 10 8 11 14 12 6 13
 SMILES IDX 5 14 10 15 11 17 12 18 13 19 7 21 4 23 2 24 1 26 3 27 17 28
 SMILES IDX 19 30 25 32 26 33 27 34 41 35 28 36 40 37 29 38 30 39 31 40
 SMILES IDX 32 42 33 43 34 44 35 45 39 46 36 47 38 48 37 49
 H PARENT 21 4 10 16 13 20 7 22 4 25 17 29 19 31 31 41
 Flexibility Score: inf
  4 active torsions:
  status: ('A' for Active; 'I' for Inactive)
    1  A    between atoms: CA   and  CB  
    2  A    between atoms: CB   and  CG  
    3  A    between atoms: CG   and  CD  
    4  A    between atoms: CD   and  CE  

>  <TORSDO>
F 20

>  <BEGIN_>
RES LYS A 131

$$$$
ligand_76_pose_6_2HRL.pdbqt
 OpenBabel07062320523D

  6  5  0  0  0  0  0  0  0  0999 V2000
   33.1930   34.6630    9.2900 C   0  0  0  0  0  0  0  0  0  0  0  0
   32.0600   35.3600   10.0340 C   0  0  0  0  0  0  0  0  0  0  0  0
   32.4660   35.8980   11.3820 C   0  0  0  0  0  0  0  0  0  0  0  0
   31.3160   35.7900   12.3710 C   0  0  0  0  0  0  0  0  0  0  0  0
   31.2210   37.0450   13.2170 C   0  0  0  0  0  0  0  0  0  0  0  0
   31.2200   38.2670   12.3660 N   0  0  0  0  0  0  0  0  0  0  0  0
  1  2  1  0  0  0  0
  2  3  1  0  0  0  0
  3  4  1  0  0  0  0
  4  5  1  0  0  0  0
  6  5  1  0  0  0  0
M  END
>  <EGIN_R>
ES LYS A 135

>  <REMARK>
  4 active torsions:
  status: ('A' for Active; 'I' for Inactive)
    5  A    between atoms: CA   and  CB  
    6  A    between atoms: CB   and  CG  
    7  A    between atoms: CG   and  CD  
    8  A    between atoms: CD   and  CE  

$$$$
