ligand_27_pose_0_2HRL.pdbqt
 OpenBabel07062320523D

 50 51  0  0  1  0  0  0  0  0999 V2000
   27.2780   27.6970   19.5210 C   0  0  0  0  0  0  0  0  0  0  0  0
   27.8460   28.3710   20.7360 C   0  0  2  0  0  0  0  0  0  0  0  0
   28.9820   27.6110   21.3560 C   0  0  2  0  0  0  0  0  0  0  0  0
   29.9370   28.5580   22.0860 C   0  0  2  0  0  0  0  0  0  0  0  0
   30.7600   30.2570   20.6850 C   0  0  2  0  0  0  0  0  0  0  0  0
   32.1610   29.9750   21.2100 C   0  0  0  0  0  0  0  0  0  0  0  0
   29.8300   29.7730   21.5370 O   0  0  0  0  0  0  0  0  0  0  0  0
   32.2740   28.4520   21.1470 C   0  0  1  0  0  0  0  0  0  0  0  0
   31.2760   27.9110   22.1340 C   0  0  1  0  0  0  0  0  0  0  0  0
   30.7150   29.7110   19.4090 O   0  0  0  0  0  0  0  0  0  0  0  0
   29.7680   29.6190   19.1400 H   0  0  0  0  0  0  0  0  0  0  0  0
   30.5690   31.7220   20.5710 C   0  0  0  0  0  0  0  0  0  0  0  0
   30.7080   32.4350   21.5910 O   0  0  0  0  0  0  0  0  0  0  0  0
   30.2410   32.3460   19.3760 O   0  0  0  0  0  0  0  0  0  0  0  0
   30.0090   31.7560   18.5690 H   0  0  0  0  0  0  0  0  0  0  0  0
   31.9380   27.9680   19.8870 O   0  0  0  0  0  0  0  0  0  0  0  0
   32.4660   27.1560   19.6410 H   0  0  0  0  0  0  0  0  0  0  0  0
   31.8700   28.0450   23.4470 N   0  0  0  0  0  0  0  0  0  0  0  0
   31.5580   27.1000   24.4580 C   0  0  0  0  0  0  0  0  0  0  0  0
   32.5350   28.8400   23.6740 H   0  0  0  0  0  0  0  0  0  0  0  0
   32.1700   27.2440   25.8040 C   0  0  0  0  0  0  0  0  0  0  0  0
   30.7700   26.1520   24.2080 O   0  0  0  0  0  0  0  0  0  0  0  0
   29.6660   26.9850   20.2920 O   0  0  0  0  0  0  0  0  0  0  0  0
   29.0460   26.6320   19.6370 H   0  0  0  0  0  0  0  0  0  0  0  0
   26.8240   28.5140   21.6920 O   0  0  0  0  0  0  0  0  0  0  0  0
   27.2130   28.8520   22.5180 H   0  0  0  0  0  0  0  0  0  0  0  0
   27.8200   28.3120   18.3150 N   0  0  0  0  0  0  0  0  0  0  0  0
   26.9730   28.6480   17.2300 C   0  0  0  0  0  0  0  0  0  0  0  0
   28.8430   28.4940   18.2780 H   0  0  0  0  0  0  0  0  0  0  0  0
   25.7420   28.4090   17.3180 O   0  0  0  0  0  0  0  0  0  0  0  0
   27.4460   29.2330   16.0660 O   0  0  0  0  0  0  0  0  0  0  0  0
   27.3920   30.6380   15.9550 C   0  0  0  0  0  0  0  0  0  0  0  0
   28.7560   31.1970   16.1500 C   0  0  0  0  0  0  0  0  0  0  0  0
   29.2240   32.4140   15.6860 C   0  0  0  0  0  0  0  0  0  0  0  0
   29.7980   30.6520   16.8030 N   0  0  0  0  0  0  0  0  0  0  0  0
   30.5150   32.5730   16.0640 N   0  0  0  0  0  0  0  0  0  0  0  0
   30.8290   31.4820   16.7410 N   0  0  0  0  0  0  0  0  0  0  0  0
   31.3540   33.6870   15.7840 C   0  0  0  0  0  0  0  0  0  0  0  0
   31.9580   34.3520   16.8300 C   0  0  0  0  0  0  0  0  0  0  0  0
   31.6010   34.1480   14.5080 C   0  0  0  0  0  0  0  0  0  0  0  0
   32.7840   35.4420   16.6090 C   0  0  0  0  0  0  0  0  0  0  0  0
   32.4170   35.2290   14.2520 C   0  0  0  0  0  0  0  0  0  0  0  0
   33.0070   35.8730   15.3200 C   0  0  0  0  0  0  0  0  0  0  0  0
   32.7070   35.7890   12.5980 Cl  0  0  0  0  0  0  0  0  0  0  0  0
   29.8670   25.5550   16.9770 C   0  0  0  0  0  0  0  0  0  0  0  0
   28.3450   25.7220   17.0260 C   0  0  0  0  0  0  0  0  0  0  0  0
   27.6010   24.4010   16.9000 C   0  0  0  0  0  0  0  0  0  0  0  0
   26.5930   24.2120   17.9990 C   0  0  0  0  0  0  0  0  0  0  0  0
   25.3030   24.9420   17.6380 C   0  0  0  0  0  0  0  0  0  0  0  0
   24.4170   24.0640   16.8380 N   0  0  0  0  0  0  0  0  0  0  0  0
  2  1  1  6  0  0  0
  2  3  1  0  0  0  0
  2 25  1  0  0  0  0
  3 23  1  6  0  0  0
  4  3  1  6  0  0  0
  4  9  1  0  0  0  0
  5 10  1  6  0  0  0
  5  6  1  0  0  0  0
  5  7  1  0  0  0  0
  7  4  1  0  0  0  0
  8 16  1  6  0  0  0
  8  6  1  0  0  0  0
  8  9  1  0  0  0  0
  9 18  1  1  0  0  0
 11 10  1  0  0  0  0
 12  5  1  0  0  0  0
 12 13  2  0  0  0  0
 14 12  1  0  0  0  0
 15 14  1  0  0  0  0
 17 16  1  0  0  0  0
 18 20  1  0  0  0  0
 18 19  1  0  0  0  0
 19 21  1  0  0  0  0
 22 19  2  0  0  0  0
 24 23  1  0  0  0  0
 25 26  1  0  0  0  0
 27  1  1  0  0  0  0
 28 30  2  0  0  0  0
 28 27  1  0  0  0  0
 29 27  1  0  0  0  0
 31 28  1  0  0  0  0
 32 31  1  0  0  0  0
 32 33  1  0  0  0  0
 33 35  1  0  0  0  0
 34 36  1  0  0  0  0
 34 33  2  0  0  0  0
 36 37  1  0  0  0  0
 37 35  2  0  0  0  0
 38 36  1  0  0  0  0
 38 39  2  0  0  0  0
 40 38  1  0  0  0  0
 41 39  1  0  0  0  0
 42 40  2  0  0  0  0
 42 43  1  0  0  0  0
 43 41  2  0  0  0  0
 44 42  1  0  0  0  0
 45 46  1  0  0  0  0
 47 46  1  0  0  0  0
 47 48  1  0  0  0  0
 49 48  1  0  0  0  0
 50 49  1  0  0  0  0
M  END
>  <REMARK>
 VINA RESULT:    -6.177      0.000      0.000
 INTER + INTRA:         -15.188
 INTER:                  -9.128
 INTRA:                  -6.060
 UNBOUND:                -4.497
 SMILES CC(=O)N[C@@H]1[C@@H](O)C[C@](O)(C(=O)O)O[C@H]1C(O)[C@H](O)CNC(=O)OCc1cn(-c2cccc(Cl)c2)nn1
 SMILES IDX 20 1 18 2 16 3 15 4 9 5 8 6 14 7 6 8 5 9 10 10 11 12 12 13
 SMILES IDX 13 14 7 16 4 18 2 19 1 21 3 22 17 23 19 25 21 27 22 28 23 30
 SMILES IDX 24 31 25 32 26 33 27 34 37 35 28 36 36 37 29 38 30 39 35 40
 SMILES IDX 31 41 33 42 32 43 34 44
 H PARENT 10 11 13 15 7 17 4 20 17 24 19 26 21 29
 Flexibility Score: inf
  4 active torsions:
  status: ('A' for Active; 'I' for Inactive)
    1  A    between atoms: CA   and  CB  
    2  A    between atoms: CB   and  CG  
    3  A    between atoms: CG   and  CD  
    4  A    between atoms: CD   and  CE  

>  <TORSDO>
F 15

>  <BEGIN_>
RES LYS A 131

$$$$
ligand_27_pose_0_2HRL.pdbqt
 OpenBabel07062320523D

  6  5  0  0  0  0  0  0  0  0999 V2000
   33.1930   34.6630    9.2900 C   0  0  0  0  0  0  0  0  0  0  0  0
   32.0600   35.3600   10.0340 C   0  0  0  0  0  0  0  0  0  0  0  0
   30.7080   34.7400    9.7910 C   0  0  0  0  0  0  0  0  0  0  0  0
   30.4860   34.5040    8.3050 C   0  0  0  0  0  0  0  0  0  0  0  0
   29.0530   34.8260    7.9230 C   0  0  0  0  0  0  0  0  0  0  0  0
   28.0950   34.2630    8.9140 N   0  0  0  0  0  0  0  0  0  0  0  0
  1  2  1  0  0  0  0
  3  2  1  0  0  0  0
  4  3  1  0  0  0  0
  5  4  1  0  0  0  0
  5  6  1  0  0  0  0
M  END
>  <EGIN_R>
ES LYS A 135

>  <REMARK>
  4 active torsions:
  status: ('A' for Active; 'I' for Inactive)
    5  A    between atoms: CA   and  CB  
    6  A    between atoms: CB   and  CG  
    7  A    between atoms: CG   and  CD  
    8  A    between atoms: CD   and  CE  

$$$$
