ligand_18_pose_6_2HRL.pdbqt
 OpenBabel07062320523D

 54 55  0  0  1  0  0  0  0  0999 V2000
   26.5990   39.6650    5.0040 N   0  0  0  0  0  0  0  0  0  0  0  0
   26.1720   40.8630    5.6130 C   0  0  0  0  0  0  0  0  0  0  0  0
   27.0360   41.6080    6.1370 O   0  0  0  0  0  0  0  0  0  0  0  0
   25.8640   39.0600    4.5750 H   0  0  0  0  0  0  0  0  0  0  0  0
   27.9740   39.2130    4.9280 C   0  0  0  0  0  0  0  0  0  0  0  0
   28.1580   37.9220    5.6740 C   0  0  2  0  0  0  0  0  0  0  0  0
   27.9840   38.0240    7.1520 C   0  0  1  0  0  0  0  0  0  0  0  0
   28.8550   38.9650    7.8940 C   0  0  2  0  0  0  0  0  0  0  0  0
   31.1490   39.3800    8.0980 C   0  0  2  0  0  0  0  0  0  0  0  0
   30.6040   40.6170    8.7880 C   0  0  0  0  0  0  0  0  0  0  0  0
   30.1920   38.5980    7.5230 O   0  0  0  0  0  0  0  0  0  0  0  0
   29.6480   40.1740    9.8390 C   0  0  1  0  0  0  0  0  0  0  0  0
   28.8530   38.9390    9.3690 C   0  0  1  0  0  0  0  0  0  0  0  0
   31.8810   38.6960    9.0880 O   0  0  0  0  0  0  0  0  0  0  0  0
   32.5660   38.1300    8.6370 H   0  0  0  0  0  0  0  0  0  0  0  0
   32.1090   39.7640    7.0300 C   0  0  0  0  0  0  0  0  0  0  0  0
   33.1490   40.3800    7.3440 O   0  0  0  0  0  0  0  0  0  0  0  0
   31.8840   39.4580    5.6910 O   0  0  0  0  0  0  0  0  0  0  0  0
   31.9780   38.4740    5.4350 H   0  0  0  0  0  0  0  0  0  0  0  0
   30.2310   39.9430   11.0660 O   0  0  0  0  0  0  0  0  0  0  0  0
   29.8120   40.4940   11.7740 H   0  0  0  0  0  0  0  0  0  0  0  0
   27.6190   38.9990   10.0570 N   0  0  0  0  0  0  0  0  0  0  0  0
   27.4560   38.3280   11.2870 C   0  0  0  0  0  0  0  0  0  0  0  0
   26.8150   39.5260    9.6880 H   0  0  0  0  0  0  0  0  0  0  0  0
   26.1710   38.3600   12.0510 C   0  0  0  0  0  0  0  0  0  0  0  0
   28.3950   37.6490   11.8250 O   0  0  0  0  0  0  0  0  0  0  0  0
   26.6780   37.9100    7.6040 O   0  0  0  0  0  0  0  0  0  0  0  0
   26.4380   38.5290    8.3040 H   0  0  0  0  0  0  0  0  0  0  0  0
   29.2850   37.2010    5.3000 O   0  0  0  0  0  0  0  0  0  0  0  0
   29.3570   36.3300    5.7540 H   0  0  0  0  0  0  0  0  0  0  0  0
   24.8260   41.2500    5.6520 O   0  0  0  0  0  0  0  0  0  0  0  0
   24.1840   41.5050    6.8880 C   0  0  0  0  0  0  0  0  0  0  0  0
   24.1190   40.2250    7.6460 C   0  0  0  0  0  0  0  0  0  0  0  0
   23.4160   39.0810    7.3310 C   0  0  0  0  0  0  0  0  0  0  0  0
   24.7400   39.9320    8.8000 N   0  0  0  0  0  0  0  0  0  0  0  0
   23.6290   38.1580    8.2800 N   0  0  0  0  0  0  0  0  0  0  0  0
   24.4380   38.7010    9.1630 N   0  0  0  0  0  0  0  0  0  0  0  0
   23.0460   36.8060    8.2800 C   0  0  0  0  0  0  0  0  0  0  0  0
   23.8330   36.0060    9.2470 C   0  0  0  0  0  0  0  0  0  0  0  0
   23.2170   35.4480   10.2150 O   0  0  0  0  0  0  0  0  0  0  0  0
   25.2320   35.8040    9.1910 N   0  0  0  0  0  0  0  0  0  0  0  0
   25.7320   36.2580    8.4050 H   0  0  0  0  0  0  0  0  0  0  0  0
   25.9590   35.0130   10.1570 C   0  0  0  0  0  0  0  0  0  0  0  0
   27.3470   34.8030    9.5830 C   0  0  0  0  0  0  0  0  0  0  0  0
   27.7480   34.7860    8.3170 C   0  0  0  0  0  0  0  0  0  0  0  0
   28.7930   34.5230   10.4960 S   0  0  0  0  0  0  0  0  0  0  0  0
   29.0460   34.5790    8.0090 C   0  0  0  0  0  0  0  0  0  0  0  0
   29.9070   34.3900    9.0990 C   0  0  0  0  0  0  0  0  0  0  0  0
   29.8670   25.5550   16.9770 C   0  0  0  0  0  0  0  0  0  0  0  0
   28.3450   25.7220   17.0260 C   0  0  0  0  0  0  0  0  0  0  0  0
   27.6020   24.3990   16.9170 C   0  0  0  0  0  0  0  0  0  0  0  0
   26.2280   24.4710   17.5240 C   0  0  0  0  0  0  0  0  0  0  0  0
   26.0580   25.8040   18.2440 C   0  0  0  0  0  0  0  0  0  0  0  0
   25.7550   25.5840   19.6780 N   0  0  0  0  0  0  0  0  0  0  0  0
  1  2  1  0  0  0  0
  2 31  1  0  0  0  0
  2  3  2  0  0  0  0
  4  1  1  0  0  0  0
  5  1  1  0  0  0  0
  6  5  1  1  0  0  0
  6  7  1  0  0  0  0
  7 27  1  6  0  0  0
  8  7  1  6  0  0  0
  8 13  1  0  0  0  0
  9 16  1  6  0  0  0
  9 10  1  0  0  0  0
  9 14  1  0  0  0  0
 10 12  1  0  0  0  0
 11  8  1  0  0  0  0
 11  9  1  0  0  0  0
 12 20  1  1  0  0  0
 13 12  1  0  0  0  0
 13 22  1  1  0  0  0
 15 14  1  0  0  0  0
 16 17  2  0  0  0  0
 18 16  1  0  0  0  0
 19 18  1  0  0  0  0
 20 21  1  0  0  0  0
 22 23  1  0  0  0  0
 23 26  2  0  0  0  0
 23 25  1  0  0  0  0
 24 22  1  0  0  0  0
 27 28  1  0  0  0  0
 29  6  1  0  0  0  0
 29 30  1  0  0  0  0
 31 32  1  0  0  0  0
 32 33  1  0  0  0  0
 33 35  1  0  0  0  0
 34 33  2  0  0  0  0
 34 36  1  0  0  0  0
 35 37  2  0  0  0  0
 36 37  1  0  0  0  0
 38 36  1  0  0  0  0
 38 39  1  0  0  0  0
 39 40  2  0  0  0  0
 41 39  1  0  0  0  0
 41 43  1  0  0  0  0
 42 41  1  0  0  0  0
 44 43  1  0  0  0  0
 44 46  1  0  0  0  0
 45 44  2  0  0  0  0
 47 45  1  0  0  0  0
 47 48  2  0  0  0  0
 48 46  1  0  0  0  0
 49 50  1  0  0  0  0
 51 50  1  0  0  0  0
 51 52  1  0  0  0  0
 52 53  1  0  0  0  0
 53 54  1  0  0  0  0
M  END
>  <REMARK>
 VINA RESULT:    -4.474      3.121      6.568
 INTER + INTRA:         -15.316
 INTER:                  -8.820
 INTRA:                  -6.496
 UNBOUND:                -6.788
 SMILES CC(=O)N[C@@H]1[C@@H](O)C[C@](O)(C(=O)O)O[C@H]1C(O)[C@H](O)CNC(=O)OCc1cn(CC(=O)NCc2cccs2)nn1
 SMILES IDX 21 1 22 2 23 3 20 5 18 6 16 7 15 8 9 9 8 10 14 11 6 12 5 13
 SMILES IDX 10 14 11 16 12 17 13 18 7 20 4 22 2 23 1 25 3 26 17 27 19 29
 SMILES IDX 24 31 25 32 26 33 27 34 40 35 28 36 39 37 29 38 30 39 31 40
 SMILES IDX 32 41 33 43 34 44 35 45 38 46 36 47 37 48
 H PARENT 21 4 10 15 13 19 7 21 4 24 17 28 19 30 32 42
 Flexibility Score: inf
  4 active torsions:
  status: ('A' for Active; 'I' for Inactive)
    1  A    between atoms: CA   and  CB  
    2  A    between atoms: CB   and  CG  
    3  A    between atoms: CG   and  CD  
    4  A    between atoms: CD   and  CE  

>  <TORSDO>
F 18

>  <BEGIN_>
RES LYS A 131

$$$$
ligand_18_pose_6_2HRL.pdbqt
 OpenBabel07062320523D

  6  5  0  0  0  0  0  0  0  0999 V2000
   33.1930   34.6630    9.2900 C   0  0  0  0  0  0  0  0  0  0  0  0
   32.0600   35.3600   10.0340 C   0  0  0  0  0  0  0  0  0  0  0  0
   32.4970   36.0190   11.3160 C   0  0  0  0  0  0  0  0  0  0  0  0
   31.9040   35.3010   12.5190 C   0  0  0  0  0  0  0  0  0  0  0  0
   31.7060   36.2670   13.6720 C   0  0  0  0  0  0  0  0  0  0  0  0
   31.5940   37.6690   13.1840 N   0  0  0  0  0  0  0  0  0  0  0  0
  1  2  1  0  0  0  0
  2  3  1  0  0  0  0
  3  4  1  0  0  0  0
  4  5  1  0  0  0  0
  6  5  1  0  0  0  0
M  END
>  <EGIN_R>
ES LYS A 135

>  <REMARK>
  4 active torsions:
  status: ('A' for Active; 'I' for Inactive)
    5  A    between atoms: CA   and  CB  
    6  A    between atoms: CB   and  CG  
    7  A    between atoms: CG   and  CD  
    8  A    between atoms: CD   and  CE  

$$$$
