ligand_28_pose_15_2HRL.pdbqt
 OpenBabel07062320523D

 53 55  0  0  1  0  0  0  0  0999 V2000
   23.7890   37.4790   10.2530 N   0  0  0  0  0  0  0  0  0  0  0  0
   23.7360   36.1680   10.8040 C   0  0  0  0  0  0  0  0  0  0  0  0
   22.9720   35.2960   10.2770 O   0  0  0  0  0  0  0  0  0  0  0  0
   24.4170   38.1620   10.7010 H   0  0  0  0  0  0  0  0  0  0  0  0
   22.9600   37.7500    9.1070 C   0  0  0  0  0  0  0  0  0  0  0  0
   23.7240   37.8540    7.8250 C   0  0  2  0  0  0  0  0  0  0  0  0
   24.0380   39.2840    7.4470 C   0  0  2  0  0  0  0  0  0  0  0  0
   25.5410   39.5390    7.5150 C   0  0  2  0  0  0  0  0  0  0  0  0
   26.6360   39.5850    9.5610 C   0  0  2  0  0  0  0  0  0  0  0  0
   27.5890   40.6810    9.1410 C   0  0  0  0  0  0  0  0  0  0  0  0
   26.1420   38.8470    8.5240 O   0  0  0  0  0  0  0  0  0  0  0  0
   27.3350   41.1440    7.7210 C   0  0  1  0  0  0  0  0  0  0  0  0
   25.8490   41.0130    7.4790 C   0  0  1  0  0  0  0  0  0  0  0  0
   25.5970   40.1120   10.3520 O   0  0  0  0  0  0  0  0  0  0  0  0
   24.7540   39.6390   10.2250 H   0  0  0  0  0  0  0  0  0  0  0  0
   27.4030   38.6700   10.4500 C   0  0  0  0  0  0  0  0  0  0  0  0
   28.5920   38.9530   10.7860 O   0  0  0  0  0  0  0  0  0  0  0  0
   26.8900   37.4870   10.9540 O   0  0  0  0  0  0  0  0  0  0  0  0
   27.5500   36.7300   11.1530 H   0  0  0  0  0  0  0  0  0  0  0  0
   27.7980   42.4390    7.5140 O   0  0  0  0  0  0  0  0  0  0  0  0
   27.7800   42.6090    6.5410 H   0  0  0  0  0  0  0  0  0  0  0  0
   25.4110   41.5840    6.2560 N   0  0  0  0  0  0  0  0  0  0  0  0
   24.4560   42.6320    6.2020 C   0  0  0  0  0  0  0  0  0  0  0  0
   25.8300   41.1940    5.3600 H   0  0  0  0  0  0  0  0  0  0  0  0
   24.0160   43.2130    4.8930 C   0  0  0  0  0  0  0  0  0  0  0  0
   24.0060   43.0400    7.3030 O   0  0  0  0  0  0  0  0  0  0  0  0
   23.4420   40.1130    8.3960 O   0  0  0  0  0  0  0  0  0  0  0  0
   22.8880   39.5720    9.0110 H   0  0  0  0  0  0  0  0  0  0  0  0
   22.9560   37.2580    6.8250 O   0  0  0  0  0  0  0  0  0  0  0  0
   23.4510   37.1770    5.9740 H   0  0  0  0  0  0  0  0  0  0  0  0
   24.4900   35.7860   11.9090 O   0  0  0  0  0  0  0  0  0  0  0  0
   25.0440   34.4750   11.9300 C   0  0  0  0  0  0  0  0  0  0  0  0
   26.4640   34.5060   11.5110 C   0  0  0  0  0  0  0  0  0  0  0  0
   26.9120   34.2160   10.2550 C   0  0  0  0  0  0  0  0  0  0  0  0
   27.5420   34.8030   12.2360 N   0  0  0  0  0  0  0  0  0  0  0  0
   28.2460   34.3460   10.2540 N   0  0  0  0  0  0  0  0  0  0  0  0
   28.6140   34.7030   11.4620 N   0  0  0  0  0  0  0  0  0  0  0  0
   29.1070   34.1270    9.1120 C   0  0  0  0  0  0  0  0  0  0  0  0
   29.0710   35.3720    8.2940 C   0  0  0  0  0  0  0  0  0  0  0  0
   29.9020   36.4130    8.6400 C   0  0  0  0  0  0  0  0  0  0  0  0
   28.2380   35.5110    7.2130 C   0  0  0  0  0  0  0  0  0  0  0  0
   29.8850   37.5850    7.8900 C   0  0  0  0  0  0  0  0  0  0  0  0
   28.2240   36.6760    6.4720 C   0  0  0  0  0  0  0  0  0  0  0  0
   29.0450   37.7200    6.8040 C   0  0  0  0  0  0  0  0  0  0  0  0
   27.4800   37.0300    5.3630 O   0  0  0  0  0  0  0  0  0  0  0  0
   28.8440   38.7580    5.9180 O   0  0  0  0  0  0  0  0  0  0  0  0
   28.0220   38.2400    4.8820 C   0  0  0  0  0  0  0  0  0  0  0  0
   29.8670   25.5550   16.9770 C   0  0  0  0  0  0  0  0  0  0  0  0
   28.3450   25.7220   17.0260 C   0  0  0  0  0  0  0  0  0  0  0  0
   27.6010   24.4020   16.8890 C   0  0  0  0  0  0  0  0  0  0  0  0
   26.6540   24.1650   18.0320 C   0  0  0  0  0  0  0  0  0  0  0  0
   25.4290   25.0600   17.8730 C   0  0  0  0  0  0  0  0  0  0  0  0
   24.5180   24.5140   16.8390 N   0  0  0  0  0  0  0  0  0  0  0  0
  1  4  1  0  0  0  0
  1  2  1  0  0  0  0
  2 31  1  0  0  0  0
  3  2  2  0  0  0  0
  5  1  1  0  0  0  0
  6  5  1  1  0  0  0
  7  6  1  0  0  0  0
  7 27  1  1  0  0  0
  8  7  1  1  0  0  0
  8 11  1  0  0  0  0
  9 14  1  1  0  0  0
  9 16  1  0  0  0  0
 10  9  1  0  0  0  0
 11  9  1  0  0  0  0
 12 20  1  1  0  0  0
 12 10  1  0  0  0  0
 13 22  1  6  0  0  0
 13  8  1  0  0  0  0
 13 12  1  0  0  0  0
 15 14  1  0  0  0  0
 16 17  2  0  0  0  0
 16 18  1  0  0  0  0
 18 19  1  0  0  0  0
 21 20  1  0  0  0  0
 23 22  1  0  0  0  0
 23 26  2  0  0  0  0
 24 22  1  0  0  0  0
 25 23  1  0  0  0  0
 27 28  1  0  0  0  0
 29  6  1  0  0  0  0
 30 29  1  0  0  0  0
 31 32  1  0  0  0  0
 33 32  1  0  0  0  0
 33 35  1  0  0  0  0
 34 33  2  0  0  0  0
 36 34  1  0  0  0  0
 36 37  1  0  0  0  0
 37 35  2  0  0  0  0
 38 36  1  0  0  0  0
 39 40  1  0  0  0  0
 39 38  1  0  0  0  0
 41 39  2  0  0  0  0
 42 40  2  0  0  0  0
 43 44  2  0  0  0  0
 43 41  1  0  0  0  0
 44 42  1  0  0  0  0
 45 43  1  0  0  0  0
 46 44  1  0  0  0  0
 47 45  1  0  0  0  0
 47 46  1  0  0  0  0
 48 49  1  0  0  0  0
 50 49  1  0  0  0  0
 50 51  1  0  0  0  0
 52 51  1  0  0  0  0
 53 52  1  0  0  0  0
M  END
>  <REMARK>
 VINA RESULT:    -4.858      3.787      6.425
 INTER + INTRA:         -14.694
 INTER:                  -8.086
 INTRA:                  -6.608
 UNBOUND:                -6.003
 SMILES CC(=O)N[C@@H]1[C@@H](O)C[C@](O)(C(=O)O)O[C@H]1C(O)[C@H](O)CNC(=O)OCc1cn(Cc2ccc3c(c2)OCO3)nn1
 SMILES IDX 21 1 22 2 23 3 20 5 18 6 16 7 15 8 9 9 8 10 14 11 6 12 5 13
 SMILES IDX 10 14 11 16 12 17 13 18 7 20 4 22 2 23 1 25 3 26 17 27 19 29
 SMILES IDX 24 31 25 32 26 33 27 34 40 35 28 36 39 37 29 38 30 39 31 40
 SMILES IDX 35 41 32 42 34 43 33 44 36 45 38 46 37 47
 H PARENT 21 4 10 15 13 19 7 21 4 24 17 28 19 30
 Flexibility Score: inf
  4 active torsions:
  status: ('A' for Active; 'I' for Inactive)
    1  A    between atoms: CA   and  CB  
    2  A    between atoms: CB   and  CG  
    3  A    between atoms: CG   and  CD  
    4  A    between atoms: CD   and  CE  

>  <TORSDO>
F 16

>  <BEGIN_>
RES LYS A 131

$$$$
ligand_28_pose_15_2HRL.pdbqt
 OpenBabel07062320523D

  6  5  0  0  0  0  0  0  0  0999 V2000
   33.1930   34.6630    9.2900 C   0  0  0  0  0  0  0  0  0  0  0  0
   32.0600   35.3600   10.0340 C   0  0  0  0  0  0  0  0  0  0  0  0
   32.4730   35.9220   11.3700 C   0  0  0  0  0  0  0  0  0  0  0  0
   31.9230   37.3290   11.5530 C   0  0  0  0  0  0  0  0  0  0  0  0
   31.2090   37.4520   12.8850 C   0  0  0  0  0  0  0  0  0  0  0  0
   31.1140   36.1320   13.5670 N   0  0  0  0  0  0  0  0  0  0  0  0
  1  2  1  0  0  0  0
  2  3  1  0  0  0  0
  3  4  1  0  0  0  0
  4  5  1  0  0  0  0
  5  6  1  0  0  0  0
M  END
>  <EGIN_R>
ES LYS A 135

>  <REMARK>
  4 active torsions:
  status: ('A' for Active; 'I' for Inactive)
    5  A    between atoms: CA   and  CB  
    6  A    between atoms: CB   and  CG  
    7  A    between atoms: CG   and  CD  
    8  A    between atoms: CD   and  CE  

$$$$
