ligand_4_pose_10_2HRL.pdbqt
 OpenBabel07062320523D

 52 53  0  0  1  0  0  0  0  0999 V2000
   27.4920   29.8440   17.8510 N   0  0  0  0  0  0  0  0  0  0  0  0
   27.0450   29.9890   16.5240 C   0  0  0  0  0  0  0  0  0  0  0  0
   25.9020   29.6220   16.1810 O   0  0  0  0  0  0  0  0  0  0  0  0
   28.4630   30.1840   18.0850 H   0  0  0  0  0  0  0  0  0  0  0  0
   26.6850   29.2660   18.8690 C   0  0  0  0  0  0  0  0  0  0  0  0
   26.8750   27.7610   19.0500 C   0  0  2  0  0  0  0  0  0  0  0  0
   26.9220   27.5960   20.5710 C   0  0  2  0  0  0  0  0  0  0  0  0
   28.0540   28.3380   21.2050 C   0  0  2  0  0  0  0  0  0  0  0  0
   30.1760   27.5930   21.7700 C   0  0  2  0  0  0  0  0  0  0  0  0
   30.2240   28.4860   22.9590 C   0  0  0  0  0  0  0  0  0  0  0  0
   29.2510   27.8500   20.8030 O   0  0  0  0  0  0  0  0  0  0  0  0
   28.8850   28.9870   23.4560 C   0  0  1  0  0  0  0  0  0  0  0  0
   27.8400   28.2160   22.7060 C   0  0  1  0  0  0  0  0  0  0  0  0
   30.1240   26.2400   22.1940 O   0  0  0  0  0  0  0  0  0  0  0  0
   30.7080   26.0470   22.9490 H   0  0  0  0  0  0  0  0  0  0  0  0
   31.5130   27.7350   21.0850 C   0  0  0  0  0  0  0  0  0  0  0  0
   32.3610   28.4970   21.5970 O   0  0  0  0  0  0  0  0  0  0  0  0
   31.8420   27.0530   19.9210 O   0  0  0  0  0  0  0  0  0  0  0  0
   32.4410   26.2310   19.8870 H   0  0  0  0  0  0  0  0  0  0  0  0
   28.7860   28.6700   24.8460 O   0  0  0  0  0  0  0  0  0  0  0  0
   27.9770   28.1350   25.0270 H   0  0  0  0  0  0  0  0  0  0  0  0
   26.4830   28.4150   23.0360 N   0  0  0  0  0  0  0  0  0  0  0  0
   25.7280   27.6020   23.9160 C   0  0  0  0  0  0  0  0  0  0  0  0
   25.9560   29.2430   22.5950 H   0  0  0  0  0  0  0  0  0  0  0  0
   24.3160   27.8270   24.2460 C   0  0  0  0  0  0  0  0  0  0  0  0
   26.3750   26.5960   24.4360 O   0  0  0  0  0  0  0  0  0  0  0  0
   26.9810   26.2140   20.7780 O   0  0  0  0  0  0  0  0  0  0  0  0
   26.2230   25.9770   21.3750 H   0  0  0  0  0  0  0  0  0  0  0  0
   28.0100   27.2710   18.4930 O   0  0  0  0  0  0  0  0  0  0  0  0
   28.6720   27.9320   18.3030 H   0  0  0  0  0  0  0  0  0  0  0  0
   27.8700   30.5520   15.5490 O   0  0  0  0  0  0  0  0  0  0  0  0
   29.2560   30.6560   15.8420 C   0  0  0  0  0  0  0  0  0  0  0  0
   29.5600   32.1080   15.8090 C   0  0  0  0  0  0  0  0  0  0  0  0
   30.2040   32.7430   14.7390 C   0  0  0  0  0  0  0  0  0  0  0  0
   29.2060   33.0670   16.6780 N   0  0  0  0  0  0  0  0  0  0  0  0
   30.1850   34.0560   15.0390 N   0  0  0  0  0  0  0  0  0  0  0  0
   29.6010   34.1990   16.1580 N   0  0  0  0  0  0  0  0  0  0  0  0
   30.6190   35.0690   14.1520 C   0  0  0  0  0  0  0  0  0  0  0  0
   31.8630   35.5650   14.2400 C   0  0  0  0  0  0  0  0  0  0  0  0
   29.6790   35.6660   13.3000 C   0  0  0  0  0  0  0  0  0  0  0  0
   32.2060   36.6780   13.4740 C   0  0  0  0  0  0  0  0  0  0  0  0
   29.9920   36.7410   12.5530 C   0  0  0  0  0  0  0  0  0  0  0  0
   31.2700   37.2780   12.6220 C   0  0  0  0  0  0  0  0  0  0  0  0
   32.8910   34.8890   15.0060 C   0  0  0  0  0  0  0  0  0  0  0  0
   33.6230   35.8230   15.9580 C   0  0  0  0  0  0  0  0  0  0  0  0
   34.0650   34.6150   13.9630 C   0  0  0  0  0  0  0  0  0  0  0  0
   29.8670   25.5550   16.9770 C   0  0  0  0  0  0  0  0  0  0  0  0
   28.3450   25.7220   17.0260 C   0  0  0  0  0  0  0  0  0  0  0  0
   27.5990   24.4310   16.7250 C   0  0  0  0  0  0  0  0  0  0  0  0
   26.9940   23.8250   17.9600 C   0  0  0  0  0  0  0  0  0  0  0  0
   25.7070   23.0950   17.5920 C   0  0  0  0  0  0  0  0  0  0  0  0
   24.9200   22.7830   18.8080 N   0  0  0  0  0  0  0  0  0  0  0  0
  1  4  1  0  0  0  0
  1  5  1  0  0  0  0
  2  1  1  0  0  0  0
  3  2  2  0  0  0  0
  6  5  1  1  0  0  0
  6  7  1  0  0  0  0
  7 27  1  6  0  0  0
  8  7  1  6  0  0  0
  8 13  1  0  0  0  0
  9 16  1  6  0  0  0
  9 14  1  0  0  0  0
  9 10  1  0  0  0  0
 10 12  1  0  0  0  0
 11  8  1  0  0  0  0
 11  9  1  0  0  0  0
 12 20  1  1  0  0  0
 13 22  1  6  0  0  0
 13 12  1  0  0  0  0
 14 15  1  0  0  0  0
 16 17  2  0  0  0  0
 18 16  1  0  0  0  0
 19 18  1  0  0  0  0
 20 21  1  0  0  0  0
 22 23  1  0  0  0  0
 23 25  1  0  0  0  0
 23 26  2  0  0  0  0
 24 22  1  0  0  0  0
 27 28  1  0  0  0  0
 29  6  1  0  0  0  0
 30 29  1  0  0  0  0
 31 32  1  0  0  0  0
 31  2  1  0  0  0  0
 33 32  1  0  0  0  0
 33 35  1  0  0  0  0
 34 36  1  0  0  0  0
 34 33  2  0  0  0  0
 36 37  1  0  0  0  0
 37 35  2  0  0  0  0
 38 39  1  0  0  0  0
 38 36  1  0  0  0  0
 39 44  1  0  0  0  0
 40 38  2  0  0  0  0
 41 39  2  0  0  0  0
 42 43  2  0  0  0  0
 42 40  1  0  0  0  0
 43 41  1  0  0  0  0
 44 45  1  0  0  0  0
 46 44  1  0  0  0  0
 47 48  1  0  0  0  0
 49 48  1  0  0  0  0
 49 50  1  0  0  0  0
 51 50  1  0  0  0  0
 51 52  1  0  0  0  0
M  END
>  <REMARK>
 VINA RESULT:    -4.174      6.366     12.777
 INTER + INTRA:         -14.705
 INTER:                  -9.424
 INTRA:                  -5.281
 UNBOUND:                -7.237
 SMILES CC(=O)N[C@@H]1[C@@H](O)C[C@](O)(C(=O)O)O[C@H]1C(O)[C@H](O)CNC(=O)OCc1cn(-c2ccccc2C(C)C)nn1
 SMILES IDX 21 1 22 2 23 3 20 5 18 6 16 7 15 8 9 9 8 10 14 11 6 12 5 13
 SMILES IDX 10 14 11 16 12 17 13 18 7 20 4 22 2 23 1 25 3 26 17 27 19 29
 SMILES IDX 24 31 25 32 26 33 27 34 39 35 28 36 38 37 29 38 34 39 30 40
 SMILES IDX 33 41 31 42 32 43 35 44 36 45 37 46
 H PARENT 21 4 10 15 13 19 7 21 4 24 17 28 19 30
 Flexibility Score: inf
  4 active torsions:
  status: ('A' for Active; 'I' for Inactive)
    1  A    between atoms: CA   and  CB  
    2  A    between atoms: CB   and  CG  
    3  A    between atoms: CG   and  CD  
    4  A    between atoms: CD   and  CE  

>  <TORSDO>
F 16

>  <BEGIN_>
RES LYS A 131

$$$$
ligand_4_pose_10_2HRL.pdbqt
 OpenBabel07062320523D

  6  5  0  0  0  0  0  0  0  0999 V2000
   33.1930   34.6630    9.2900 C   0  0  0  0  0  0  0  0  0  0  0  0
   32.0600   35.3600   10.0340 C   0  0  0  0  0  0  0  0  0  0  0  0
   30.8680   35.6670    9.1650 C   0  0  0  0  0  0  0  0  0  0  0  0
   30.3920   34.4150    8.4450 C   0  0  0  0  0  0  0  0  0  0  0  0
   28.8760   34.3630    8.4120 C   0  0  0  0  0  0  0  0  0  0  0  0
   28.3260   33.9180    9.7230 N   0  0  0  0  0  0  0  0  0  0  0  0
  1  2  1  0  0  0  0
  3  2  1  0  0  0  0
  4  3  1  0  0  0  0
  5  4  1  0  0  0  0
  5  6  1  0  0  0  0
M  END
>  <EGIN_R>
ES LYS A 135

>  <REMARK>
  4 active torsions:
  status: ('A' for Active; 'I' for Inactive)
    5  A    between atoms: CA   and  CB  
    6  A    between atoms: CB   and  CG  
    7  A    between atoms: CG   and  CD  
    8  A    between atoms: CD   and  CE  

$$$$
