ligand_26_pose_13_2HRL.pdbqt
 OpenBabel07062320523D

 54 55  0  0  1  0  0  0  0  0999 V2000
   29.7700   31.9850   17.9130 N   0  0  0  0  0  0  0  0  0  0  0  0
   28.6090   31.4260   18.5200 C   0  0  0  0  0  0  0  0  0  0  0  0
   28.0260   30.4900   17.9440 O   0  0  0  0  0  0  0  0  0  0  0  0
   30.2130   32.7800   18.4680 H   0  0  0  0  0  0  0  0  0  0  0  0
   30.3290   31.5410   16.6550 C   0  0  0  0  0  0  0  0  0  0  0  0
   30.7470   32.7030   15.7810 C   0  0  2  0  0  0  0  0  0  0  0  0
   29.5540   33.4860   15.2760 C   0  0  1  0  0  0  0  0  0  0  0  0
   29.6250   33.7830   13.8080 C   0  0  2  0  0  0  0  0  0  0  0  0
   30.9550   35.6890   13.6080 C   0  0  2  0  0  0  0  0  0  0  0  0
   29.7820   36.5430   13.1970 C   0  0  0  0  0  0  0  0  0  0  0  0
   30.8060   34.3500   13.4110 O   0  0  0  0  0  0  0  0  0  0  0  0
   28.4700   36.0150   13.6930 C   0  0  1  0  0  0  0  0  0  0  0  0
   28.4090   34.5500   13.3220 C   0  0  1  0  0  0  0  0  0  0  0  0
   31.3430   36.0330   14.9220 O   0  0  0  0  0  0  0  0  0  0  0  0
   31.4670   35.2480   15.4890 H   0  0  0  0  0  0  0  0  0  0  0  0
   32.1000   36.1300   12.7290 C   0  0  0  0  0  0  0  0  0  0  0  0
   32.2300   37.2840   12.3010 O   0  0  0  0  0  0  0  0  0  0  0  0
   33.0290   35.1200   12.4260 O   0  0  0  0  0  0  0  0  0  0  0  0
   33.8100   35.3030   11.8150 H   0  0  0  0  0  0  0  0  0  0  0  0
   28.2690   36.2340   15.0350 O   0  0  0  0  0  0  0  0  0  0  0  0
   27.4010   36.6820   15.1770 H   0  0  0  0  0  0  0  0  0  0  0  0
   28.4820   34.5160   11.8510 N   0  0  0  0  0  0  0  0  0  0  0  0
   27.2840   34.3480   11.1040 C   0  0  0  0  0  0  0  0  0  0  0  0
   29.3800   34.6120   11.3410 H   0  0  0  0  0  0  0  0  0  0  0  0
   27.3750   34.3180    9.6220 C   0  0  0  0  0  0  0  0  0  0  0  0
   26.2000   34.2330   11.7190 O   0  0  0  0  0  0  0  0  0  0  0  0
   28.4190   32.7350   15.5890 O   0  0  0  0  0  0  0  0  0  0  0  0
   27.6210   33.1580   15.1530 H   0  0  0  0  0  0  0  0  0  0  0  0
   31.4960   32.2050   14.6950 O   0  0  0  0  0  0  0  0  0  0  0  0
   30.9740   31.5630   14.1530 H   0  0  0  0  0  0  0  0  0  0  0  0
   28.1060   31.8760   19.7190 O   0  0  0  0  0  0  0  0  0  0  0  0
   27.3170   33.0320   19.8980 C   0  0  0  0  0  0  0  0  0  0  0  0
   26.8220   33.6320   18.6560 C   0  0  0  0  0  0  0  0  0  0  0  0
   25.6030   33.3340   18.0320 C   0  0  0  0  0  0  0  0  0  0  0  0
   27.3990   34.5710   17.8640 N   0  0  0  0  0  0  0  0  0  0  0  0
   25.5040   34.0720   16.9430 N   0  0  0  0  0  0  0  0  0  0  0  0
   26.5780   34.8010   16.8570 N   0  0  0  0  0  0  0  0  0  0  0  0
   24.3460   34.0520   15.9940 C   0  0  1  0  0  0  0  0  0  0  0  0
   23.9130   35.4930   15.9130 C   0  0  0  0  0  0  0  0  0  0  0  0
   24.8480   33.5290   14.7310 C   0  0  0  0  0  0  0  0  0  0  0  0
   24.7610   32.1340   14.4310 C   0  0  2  0  0  0  0  0  0  0  0  0
   25.7800   31.4400   14.9490 O   0  0  0  0  0  0  0  0  0  0  0  0
   23.8360   31.3240   13.7040 C   0  0  0  0  0  0  0  0  0  0  0  0
   24.2080   29.9950   13.3830 C   0  0  0  0  0  0  0  0  0  0  0  0
   22.5840   31.7120   13.2930 C   0  0  0  0  0  0  0  0  0  0  0  0
   23.3620   29.1570   12.7020 C   0  0  0  0  0  0  0  0  0  0  0  0
   21.7550   30.8380   12.6050 C   0  0  0  0  0  0  0  0  0  0  0  0
   22.1150   29.5670   12.2990 C   0  0  0  0  0  0  0  0  0  0  0  0
   29.8670   25.5550   16.9770 C   0  0  0  0  0  0  0  0  0  0  0  0
   28.3450   25.7220   17.0260 C   0  0  0  0  0  0  0  0  0  0  0  0
   27.6020   24.3980   16.9290 C   0  0  0  0  0  0  0  0  0  0  0  0
   26.1540   24.5320   17.3120 C   0  0  0  0  0  0  0  0  0  0  0  0
   26.0510   25.1240   18.7140 C   0  0  0  0  0  0  0  0  0  0  0  0
   24.6760   25.6110   18.9720 N   0  0  0  0  0  0  0  0  0  0  0  0
  1  4  1  0  0  0  0
  1  2  1  0  0  0  0
  2 31  1  0  0  0  0
  3  2  2  0  0  0  0
  5  1  1  0  0  0  0
  6  5  1  1  0  0  0
  7 27  1  6  0  0  0
  7  6  1  0  0  0  0
  8  7  1  1  0  0  0
  9 16  1  6  0  0  0
  9 14  1  0  0  0  0
 10  9  1  0  0  0  0
 10 12  1  0  0  0  0
 11  9  1  0  0  0  0
 11  8  1  0  0  0  0
 12 20  1  1  0  0  0
 13 22  1  6  0  0  0
 13 12  1  0  0  0  0
 13  8  1  0  0  0  0
 14 15  1  0  0  0  0
 17 16  2  0  0  0  0
 18 16  1  0  0  0  0
 19 18  1  0  0  0  0
 20 21  1  0  0  0  0
 23 26  2  0  0  0  0
 23 22  1  0  0  0  0
 24 22  1  0  0  0  0
 25 23  1  0  0  0  0
 28 27  1  0  0  0  0
 29  6  1  0  0  0  0
 30 29  1  0  0  0  0
 31 32  1  0  0  0  0
 33 32  1  0  0  0  0
 34 33  2  0  0  0  0
 35 33  1  0  0  0  0
 36 34  1  0  0  0  0
 37 36  1  0  0  0  0
 37 35  2  0  0  0  0
 38 39  1  6  0  0  0
 38 36  1  0  0  0  0
 40 38  1  0  0  0  0
 41 40  1  0  0  0  0
 41 42  1  6  0  0  0
 43 41  1  0  0  0  0
 44 43  1  0  0  0  0
 45 43  2  0  0  0  0
 46 44  2  0  0  0  0
 47 45  1  0  0  0  0
 48 47  2  0  0  0  0
 48 46  1  0  0  0  0
 49 50  1  0  0  0  0
 51 50  1  0  0  0  0
 51 52  1  0  0  0  0
 52 53  1  0  0  0  0
 53 54  1  0  0  0  0
M  END
>  <REMARK>
 VINA RESULT:    -4.656      3.827      8.808
 INTER + INTRA:         -15.809
 INTER:                  -9.681
 INTRA:                  -6.128
 UNBOUND:                -6.934
 SMILES CC(=O)N[C@@H]1[C@@H](O)C[C@](O)(C(=O)O)O[C@H]1C(O)[C@H](O)CNC(=O)OCc1cn(C(C)CC(=O)c2ccccc2)nn1
 SMILES IDX 21 1 22 2 23 3 20 5 18 6 16 7 15 8 9 9 8 10 14 11 6 12 5 13
 SMILES IDX 10 14 11 16 12 17 13 18 7 20 4 22 2 23 1 25 3 26 17 27 19 29
 SMILES IDX 24 31 25 32 26 33 27 34 41 35 28 36 40 37 29 38 30 39 31 40
 SMILES IDX 32 41 33 42 34 43 35 44 39 45 36 46 38 47 37 48
 H PARENT 21 4 10 15 13 19 7 21 4 24 17 28 19 30
 Flexibility Score: inf
  4 active torsions:
  status: ('A' for Active; 'I' for Inactive)
    1  A    between atoms: CA   and  CB  
    2  A    between atoms: CB   and  CG  
    3  A    between atoms: CG   and  CD  
    4  A    between atoms: CD   and  CE  

>  <TORSDO>
F 18

>  <BEGIN_>
RES LYS A 131

$$$$
ligand_26_pose_13_2HRL.pdbqt
 OpenBabel07062320523D

  6  5  0  0  0  0  0  0  0  0999 V2000
   33.1930   34.6630    9.2900 C   0  0  0  0  0  0  0  0  0  0  0  0
   32.0600   35.3600   10.0340 C   0  0  0  0  0  0  0  0  0  0  0  0
   30.7830   35.4490    9.2400 C   0  0  0  0  0  0  0  0  0  0  0  0
   30.0980   36.7870    9.4720 C   0  0  0  0  0  0  0  0  0  0  0  0
   29.7080   37.4220    8.1510 C   0  0  0  0  0  0  0  0  0  0  0  0
   28.9980   36.4480    7.2760 N   0  0  0  0  0  0  0  0  0  0  0  0
  1  2  1  0  0  0  0
  3  4  1  0  0  0  0
  3  2  1  0  0  0  0
  5  4  1  0  0  0  0
  6  5  1  0  0  0  0
M  END
>  <EGIN_R>
ES LYS A 135

>  <REMARK>
  4 active torsions:
  status: ('A' for Active; 'I' for Inactive)
    5  A    between atoms: CA   and  CB  
    6  A    between atoms: CB   and  CG  
    7  A    between atoms: CG   and  CD  
    8  A    between atoms: CD   and  CE  

$$$$
