ligand_73_pose_9_2HRL.pdbqt
 OpenBabel07062320523D

 54 55  0  0  1  0  0  0  0  0999 V2000
   28.4680   38.9330   11.4340 N   0  0  0  0  0  0  0  0  0  0  0  0
   29.4440   39.8120   11.9760 C   0  0  0  0  0  0  0  0  0  0  0  0
   29.7550   39.7880   13.2130 O   0  0  0  0  0  0  0  0  0  0  0  0
   28.2510   38.9790   10.4260 H   0  0  0  0  0  0  0  0  0  0  0  0
   27.8150   37.9940   12.2980 C   0  0  0  0  0  0  0  0  0  0  0  0
   27.5870   36.6310   11.7500 C   0  0  2  0  0  0  0  0  0  0  0  0
   26.6590   36.5540   10.5660 C   0  0  1  0  0  0  0  0  0  0  0  0
   27.3350   36.2610    9.2630 C   0  0  2  0  0  0  0  0  0  0  0  0
   29.3440   35.8360    8.2340 C   0  0  2  0  0  0  0  0  0  0  0  0
   28.3840   35.3770    7.1600 C   0  0  0  0  0  0  0  0  0  0  0  0
   28.7150   36.2830    9.3820 O   0  0  0  0  0  0  0  0  0  0  0  0
   27.4500   36.4910    6.8230 C   0  0  1  0  0  0  0  0  0  0  0  0
   26.7750   36.9970    8.1030 C   0  0  1  0  0  0  0  0  0  0  0  0
   30.0910   36.8730    7.6930 O   0  0  0  0  0  0  0  0  0  0  0  0
   29.9610   36.8380    6.7060 H   0  0  0  0  0  0  0  0  0  0  0  0
   30.2570   34.7030    8.5230 C   0  0  0  0  0  0  0  0  0  0  0  0
   29.9520   33.8150    9.3630 O   0  0  0  0  0  0  0  0  0  0  0  0
   31.4700   34.5980    7.8710 O   0  0  0  0  0  0  0  0  0  0  0  0
   31.5630   34.5200    6.8760 H   0  0  0  0  0  0  0  0  0  0  0  0
   28.2170   37.5040    6.2180 O   0  0  0  0  0  0  0  0  0  0  0  0
   28.5690   38.0670    6.9730 H   0  0  0  0  0  0  0  0  0  0  0  0
   25.3540   36.6280    8.0110 N   0  0  0  0  0  0  0  0  0  0  0  0
   24.3250   37.5810    7.8640 C   0  0  0  0  0  0  0  0  0  0  0  0
   25.1010   35.6120    8.0570 H   0  0  0  0  0  0  0  0  0  0  0  0
   22.9040   37.1660    7.7770 C   0  0  0  0  0  0  0  0  0  0  0  0
   24.6080   38.7840    7.8080 O   0  0  0  0  0  0  0  0  0  0  0  0
   25.6680   35.5920   10.7620 O   0  0  0  0  0  0  0  0  0  0  0  0
   25.1710   35.3730    9.9580 H   0  0  0  0  0  0  0  0  0  0  0  0
   27.0770   35.8570   12.8030 O   0  0  0  0  0  0  0  0  0  0  0  0
   27.7560   35.1500   13.0040 H   0  0  0  0  0  0  0  0  0  0  0  0
   30.0570   40.7040   11.1280 O   0  0  0  0  0  0  0  0  0  0  0  0
   29.3710   41.1820   10.0110 C   0  0  0  0  0  0  0  0  0  0  0  0
   29.8780   40.6330    8.7250 C   0  0  0  0  0  0  0  0  0  0  0  0
   31.1390   40.7830    8.1670 C   0  0  0  0  0  0  0  0  0  0  0  0
   29.2070   39.8730    7.8400 N   0  0  0  0  0  0  0  0  0  0  0  0
   31.2030   40.1330    6.9940 N   0  0  0  0  0  0  0  0  0  0  0  0
   30.0130   39.5860    6.8160 N   0  0  0  0  0  0  0  0  0  0  0  0
   32.2970   40.0230    6.0910 C   0  0  0  0  0  0  0  0  0  0  0  0
   32.1900   40.5260    4.8110 C   0  0  0  0  0  0  0  0  0  0  0  0
   33.4910   39.4250    6.4330 C   0  0  0  0  0  0  0  0  0  0  0  0
   33.2420   40.4300    3.9140 C   0  0  0  0  0  0  0  0  0  0  0  0
   34.5700   39.3040    5.5710 C   0  0  0  0  0  0  0  0  0  0  0  0
   34.4190   39.8260    4.2900 C   0  0  0  0  0  0  0  0  0  0  0  0
   35.7840   38.6890    5.9370 N   0  0  0  0  0  0  0  0  0  0  0  0
   36.4700   39.1840    6.8330 O   0  0  0  0  0  0  0  0  0  0  0  0
   36.1910   37.5570    5.3040 O   0  0  0  0  0  0  0  0  0  0  0  0
   35.5040   39.7040    3.4250 O   0  0  0  0  0  0  0  0  0  0  0  0
   36.1920   40.4700    3.4030 H   0  0  0  0  0  0  0  0  0  0  0  0
   29.8670   25.5550   16.9770 C   0  0  0  0  0  0  0  0  0  0  0  0
   28.3450   25.7220   17.0260 C   0  0  0  0  0  0  0  0  0  0  0  0
   27.6010   24.4010   16.9000 C   0  0  0  0  0  0  0  0  0  0  0  0
   26.6400   24.1830   18.0350 C   0  0  0  0  0  0  0  0  0  0  0  0
   25.4110   23.4360   17.5250 C   0  0  0  0  0  0  0  0  0  0  0  0
   24.4700   24.3740   16.8680 N   0  0  0  0  0  0  0  0  0  0  0  0
  1  2  1  0  0  0  0
  1  5  1  0  0  0  0
  2  3  2  0  0  0  0
  4  1  1  0  0  0  0
  6  5  1  1  0  0  0
  6 29  1  0  0  0  0
  7 27  1  1  0  0  0
  7  6  1  0  0  0  0
  8 11  1  0  0  0  0
  8  7  1  1  0  0  0
  9 14  1  6  0  0  0
  9 16  1  0  0  0  0
  9 11  1  0  0  0  0
 10  9  1  0  0  0  0
 12 20  1  1  0  0  0
 12 10  1  0  0  0  0
 12 13  1  0  0  0  0
 13 22  1  6  0  0  0
 13  8  1  0  0  0  0
 15 14  1  0  0  0  0
 16 17  2  0  0  0  0
 18 16  1  0  0  0  0
 19 18  1  0  0  0  0
 20 21  1  0  0  0  0
 22 24  1  0  0  0  0
 23 22  1  0  0  0  0
 25 23  1  0  0  0  0
 26 23  2  0  0  0  0
 28 27  1  0  0  0  0
 29 30  1  0  0  0  0
 31  2  1  0  0  0  0
 32 31  1  0  0  0  0
 33 32  1  0  0  0  0
 34 33  2  0  0  0  0
 35 33  1  0  0  0  0
 36 34  1  0  0  0  0
 37 36  1  0  0  0  0
 37 35  2  0  0  0  0
 38 40  1  0  0  0  0
 38 36  1  0  0  0  0
 39 38  2  0  0  0  0
 41 43  2  0  0  0  0
 41 39  1  0  0  0  0
 42 44  1  0  0  0  0
 42 40  2  0  0  0  0
 43 42  1  0  0  0  0
 44 45  2  0  0  0  0
 46 44  2  0  0  0  0
 47 43  1  0  0  0  0
 48 47  1  0  0  0  0
 49 50  1  0  0  0  0
 51 50  1  0  0  0  0
 51 52  1  0  0  0  0
 53 52  1  0  0  0  0
 54 53  1  0  0  0  0
M  END
>  <REMARK>
 VINA RESULT:    -4.074      5.816     10.852
 INTER + INTRA:         -14.719
 INTER:                  -9.565
 INTRA:                  -5.154
 UNBOUND:                -7.311
 SMILES CC(=O)N[C@@H]1[C@@H](O)C[C@](O)(C(=O)O)O[C@H]1C(O)[C@H](O)CNC(=O)OCc1cn(-c2ccc(O)c([N+](=O)[O-])c2)nn1
 SMILES IDX 21 1 22 2 23 3 20 5 18 6 16 7 15 8 9 9 8 10 14 11 6 12 5 13
 SMILES IDX 10 14 11 16 12 17 13 18 7 20 4 22 2 23 1 25 3 26 17 27 19 29
 SMILES IDX 24 31 25 32 26 33 27 34 40 35 28 36 39 37 29 38 30 39 38 40
 SMILES IDX 31 41 34 42 32 43 35 44 36 45 37 46 33 47
 H PARENT 21 4 10 15 13 19 7 21 4 24 17 28 19 30 33 48
 Flexibility Score: inf
  4 active torsions:
  status: ('A' for Active; 'I' for Inactive)
    1  A    between atoms: CA   and  CB  
    2  A    between atoms: CB   and  CG  
    3  A    between atoms: CG   and  CD  
    4  A    between atoms: CD   and  CE  

>  <TORSDO>
F 17

>  <BEGIN_>
RES LYS A 131

$$$$
ligand_73_pose_9_2HRL.pdbqt
 OpenBabel07062320523D

  6  5  0  0  0  0  0  0  0  0999 V2000
   33.1930   34.6630    9.2900 C   0  0  0  0  0  0  0  0  0  0  0  0
   32.0600   35.3600   10.0340 C   0  0  0  0  0  0  0  0  0  0  0  0
   32.4940   36.0030   11.3260 C   0  0  0  0  0  0  0  0  0  0  0  0
   31.3590   36.8190   11.9260 C   0  0  0  0  0  0  0  0  0  0  0  0
   31.0770   36.3740   13.3480 C   0  0  0  0  0  0  0  0  0  0  0  0
   31.8860   37.1540   14.3250 N   0  0  0  0  0  0  0  0  0  0  0  0
  1  2  1  0  0  0  0
  2  3  1  0  0  0  0
  3  4  1  0  0  0  0
  4  5  1  0  0  0  0
  5  6  1  0  0  0  0
M  END
>  <EGIN_R>
ES LYS A 135

>  <REMARK>
  4 active torsions:
  status: ('A' for Active; 'I' for Inactive)
    5  A    between atoms: CA   and  CB  
    6  A    between atoms: CB   and  CG  
    7  A    between atoms: CG   and  CD  
    8  A    between atoms: CD   and  CE  

$$$$
