ligand_17_pose_12_2HRL.pdbqt
 OpenBabel07062320523D

 50 50  0  0  1  0  0  0  0  0999 V2000
   30.2530   30.9660   17.4490 N   0  0  0  0  0  0  0  0  0  0  0  0
   29.6070   31.0320   18.7210 C   0  0  0  0  0  0  0  0  0  0  0  0
   29.4680   32.1250   19.2960 O   0  0  0  0  0  0  0  0  0  0  0  0
   30.3340   30.0230   17.0310 H   0  0  0  0  0  0  0  0  0  0  0  0
   30.7710   32.1070   16.7610 C   0  0  0  0  0  0  0  0  0  0  0  0
   30.2180   32.2880   15.3750 C   0  0  2  0  0  0  0  0  0  0  0  0
   30.8690   33.4740   14.6980 C   0  0  1  0  0  0  0  0  0  0  0  0
   30.5770   34.7550   15.4250 C   0  0  2  0  0  0  0  0  0  0  0  0
   28.8830   35.5130   13.9800 C   0  0  2  0  0  0  0  0  0  0  0  0
   29.9020   36.4310   13.3180 C   0  0  0  0  0  0  0  0  0  0  0  0
   29.2640   35.0960   15.2210 O   0  0  0  0  0  0  0  0  0  0  0  0
   30.7680   36.9960   14.4490 C   0  0  1  0  0  0  0  0  0  0  0  0
   31.5060   35.8550   15.0500 C   0  0  1  0  0  0  0  0  0  0  0  0
   28.5920   34.4980   13.0720 O   0  0  0  0  0  0  0  0  0  0  0  0
   29.1870   33.7090   13.2160 H   0  0  0  0  0  0  0  0  0  0  0  0
   27.6290   36.3110   14.1660 C   0  0  0  0  0  0  0  0  0  0  0  0
   26.9210   36.6770   13.2040 O   0  0  0  0  0  0  0  0  0  0  0  0
   27.2440   36.6530   15.4450 O   0  0  0  0  0  0  0  0  0  0  0  0
   27.7520   37.3130   16.0270 H   0  0  0  0  0  0  0  0  0  0  0  0
   31.6040   37.9650   13.8930 O   0  0  0  0  0  0  0  0  0  0  0  0
   32.1840   37.4770   13.2270 H   0  0  0  0  0  0  0  0  0  0  0  0
   32.3830   36.2510   16.1350 N   0  0  0  0  0  0  0  0  0  0  0  0
   33.7640   35.9090   16.1860 C   0  0  0  0  0  0  0  0  0  0  0  0
   32.0250   36.8230   16.9520 H   0  0  0  0  0  0  0  0  0  0  0  0
   34.6230   36.3440   17.3330 C   0  0  0  0  0  0  0  0  0  0  0  0
   34.2780   35.2380   15.2710 O   0  0  0  0  0  0  0  0  0  0  0  0
   32.2430   33.1710   14.7000 O   0  0  0  0  0  0  0  0  0  0  0  0
   32.5160   33.1820   13.7440 H   0  0  0  0  0  0  0  0  0  0  0  0
   28.8530   32.3170   15.4010 O   0  0  0  0  0  0  0  0  0  0  0  0
   28.5230   31.9270   16.2480 H   0  0  0  0  0  0  0  0  0  0  0  0
   29.1130   29.9080   19.3620 O   0  0  0  0  0  0  0  0  0  0  0  0
   27.7440   29.5320   19.2850 C   0  0  0  0  0  0  0  0  0  0  0  0
   27.2570   29.8590   17.9210 C   0  0  0  0  0  0  0  0  0  0  0  0
   26.0830   30.5680   17.6700 C   0  0  0  0  0  0  0  0  0  0  0  0
   27.7700   29.5820   16.7150 N   0  0  0  0  0  0  0  0  0  0  0  0
   25.9490   30.6840   16.3520 N   0  0  0  0  0  0  0  0  0  0  0  0
   26.9740   30.0850   15.7860 N   0  0  0  0  0  0  0  0  0  0  0  0
   24.8740   31.3440   15.6610 C   0  0  0  0  0  0  0  0  0  0  0  0
   24.3070   30.3930   14.6220 C   0  0  0  0  0  0  0  0  0  0  0  0
   23.1690   30.9110   13.9340 N   0  0  0  0  0  0  0  0  0  0  0  0
   22.9300   30.3440   12.6490 C   0  0  0  0  0  0  0  0  0  0  0  0
   23.3760   28.8760   12.7180 C   0  0  0  0  0  0  0  0  0  0  0  0
   23.0220   32.3220   14.0480 C   0  0  0  0  0  0  0  0  0  0  0  0
   22.6950   33.0120   12.7600 C   0  0  0  0  0  0  0  0  0  0  0  0
   29.8670   25.5550   16.9770 C   0  0  0  0  0  0  0  0  0  0  0  0
   28.3450   25.7220   17.0260 C   0  0  0  0  0  0  0  0  0  0  0  0
   27.5990   24.4190   16.7790 C   0  0  0  0  0  0  0  0  0  0  0  0
   26.8900   23.9310   18.0120 C   0  0  0  0  0  0  0  0  0  0  0  0
   25.5230   24.6020   18.1110 C   0  0  0  0  0  0  0  0  0  0  0  0
   24.7340   24.3560   16.8820 N   0  0  0  0  0  0  0  0  0  0  0  0
  1  2  1  0  0  0  0
  2  3  2  0  0  0  0
  2 31  1  0  0  0  0
  4  1  1  0  0  0  0
  5  1  1  0  0  0  0
  6 29  1  0  0  0  0
  6  5  1  1  0  0  0
  7 27  1  1  0  0  0
  7  6  1  0  0  0  0
  8  7  1  6  0  0  0
  9 14  1  6  0  0  0
  9 16  1  0  0  0  0
  9 11  1  0  0  0  0
 10  9  1  0  0  0  0
 10 12  1  0  0  0  0
 11  8  1  0  0  0  0
 12 20  1  6  0  0  0
 12 13  1  0  0  0  0
 13  8  1  0  0  0  0
 13 22  1  1  0  0  0
 14 15  1  0  0  0  0
 16 18  1  0  0  0  0
 17 16  2  0  0  0  0
 18 19  1  0  0  0  0
 21 20  1  0  0  0  0
 22 23  1  0  0  0  0
 22 24  1  0  0  0  0
 23 25  1  0  0  0  0
 26 23  2  0  0  0  0
 28 27  1  0  0  0  0
 29 30  1  0  0  0  0
 32 31  1  0  0  0  0
 33 32  1  0  0  0  0
 34 33  2  0  0  0  0
 35 33  1  0  0  0  0
 36 34  1  0  0  0  0
 37 36  1  0  0  0  0
 37 35  2  0  0  0  0
 38 36  1  0  0  0  0
 39 38  1  0  0  0  0
 40 43  1  0  0  0  0
 40 39  1  0  0  0  0
 41 42  1  0  0  0  0
 41 40  1  0  0  0  0
 44 43  1  0  0  0  0
 45 46  1  0  0  0  0
 47 46  1  0  0  0  0
 47 48  1  0  0  0  0
 48 49  1  0  0  0  0
 50 49  1  0  0  0  0
M  END
>  <REMARK>
 VINA RESULT:    -3.530      3.479      7.840
 INTER + INTRA:         -14.093
 INTER:                  -7.975
 INTRA:                  -6.118
 UNBOUND:                -7.158
 SMILES CCN(CC)CCn1cc(COC(=O)NC[C@@H](O)C(O)[C@@H]2O[C@@](O)(C(=O)O)C[C@H](O)[C@H]2NC(C)=O)nn1
 SMILES IDX 15 1 13 2 14 3 16 5 17 6 19 7 21 8 23 9 28 10 22 11 29 12
 SMILES IDX 31 13 24 14 25 16 26 17 27 18 30 20 32 22 33 23 34 25 35 26
 SMILES IDX 20 27 18 29 12 31 11 32 10 33 9 34 36 35 8 36 37 37 7 38
 SMILES IDX 6 39 3 40 2 41 1 42 4 43 5 44
 H PARENT 15 4 24 15 27 19 30 21 32 24 20 28 18 30
 Flexibility Score: inf
  4 active torsions:
  status: ('A' for Active; 'I' for Inactive)
    1  A    between atoms: CA   and  CB  
    2  A    between atoms: CB   and  CG  
    3  A    between atoms: CG   and  CD  
    4  A    between atoms: CD   and  CE  

>  <TORSDO>
F 19

>  <BEGIN_>
RES LYS A 131

$$$$
ligand_17_pose_12_2HRL.pdbqt
 OpenBabel07062320523D

  6  5  0  0  0  0  0  0  0  0999 V2000
   33.1930   34.6630    9.2900 C   0  0  0  0  0  0  0  0  0  0  0  0
   32.0600   35.3600   10.0340 C   0  0  0  0  0  0  0  0  0  0  0  0
   30.7360   34.6510    9.9150 C   0  0  0  0  0  0  0  0  0  0  0  0
   30.3280   34.5160    8.4570 C   0  0  0  0  0  0  0  0  0  0  0  0
   28.8170   34.5390    8.3210 C   0  0  0  0  0  0  0  0  0  0  0  0
   28.1660   33.8200    9.4510 N   0  0  0  0  0  0  0  0  0  0  0  0
  1  2  1  0  0  0  0
  3  2  1  0  0  0  0
  4  3  1  0  0  0  0
  5  4  1  0  0  0  0
  5  6  1  0  0  0  0
M  END
>  <EGIN_R>
ES LYS A 135

>  <REMARK>
  4 active torsions:
  status: ('A' for Active; 'I' for Inactive)
    5  A    between atoms: CA   and  CB  
    6  A    between atoms: CB   and  CG  
    7  A    between atoms: CG   and  CD  
    8  A    between atoms: CD   and  CE  

$$$$
