ligand_10_pose_14_2HRL.pdbqt
 OpenBabel07062320523D

 53 53  0  0  1  0  0  0  0  0999 V2000
   31.2350   35.7150   14.6410 N   0  0  0  0  0  0  0  0  0  0  0  0
   32.4470   35.5610   15.3780 C   0  0  0  0  0  0  0  0  0  0  0  0
   33.1480   34.5650   15.1660 O   0  0  0  0  0  0  0  0  0  0  0  0
   30.6900   36.5870   14.8760 H   0  0  0  0  0  0  0  0  0  0  0  0
   30.7570   34.7940   13.6590 C   0  0  0  0  0  0  0  0  0  0  0  0
   29.3630   34.3110   14.0030 C   0  0  2  0  0  0  0  0  0  0  0  0
   29.4070   32.9730   14.7190 C   0  0  2  0  0  0  0  0  0  0  0  0
   28.9700   33.0240   16.1380 C   0  0  2  0  0  0  0  0  0  0  0  0
   28.1820   30.8390   16.1280 C   0  0  2  0  0  0  0  0  0  0  0  0
   26.8920   31.2940   15.5870 C   0  0  0  0  0  0  0  0  0  0  0  0
   28.9890   31.7620   16.7400 O   0  0  0  0  0  0  0  0  0  0  0  0
   26.5230   32.7180   15.7290 C   0  0  1  0  0  0  0  0  0  0  0  0
   27.5920   33.6050   16.3010 C   0  0  1  0  0  0  0  0  0  0  0  0
   28.9810   30.2500   15.1150 O   0  0  0  0  0  0  0  0  0  0  0  0
   28.8990   30.8660   14.3390 H   0  0  0  0  0  0  0  0  0  0  0  0
   27.9870   29.7400   17.1140 C   0  0  0  0  0  0  0  0  0  0  0  0
   27.2140   28.7690   16.9450 O   0  0  0  0  0  0  0  0  0  0  0  0
   28.7120   29.8000   18.2940 O   0  0  0  0  0  0  0  0  0  0  0  0
   28.2890   29.5930   19.2080 H   0  0  0  0  0  0  0  0  0  0  0  0
   26.0920   33.2350   14.5110 O   0  0  0  0  0  0  0  0  0  0  0  0
   26.7630   33.7460   14.0280 H   0  0  0  0  0  0  0  0  0  0  0  0
   27.3460   33.8310   17.7460 N   0  0  0  0  0  0  0  0  0  0  0  0
   26.5500   34.9130   18.1860 C   0  0  0  0  0  0  0  0  0  0  0  0
   27.7510   33.2020   18.4710 H   0  0  0  0  0  0  0  0  0  0  0  0
   26.2770   35.1800   19.6280 C   0  0  0  0  0  0  0  0  0  0  0  0
   26.0580   35.6750   17.3270 O   0  0  0  0  0  0  0  0  0  0  0  0
   30.7880   32.6310   14.6600 O   0  0  0  0  0  0  0  0  0  0  0  0
   31.1980   32.9930   13.8390 H   0  0  0  0  0  0  0  0  0  0  0  0
   28.6100   34.2930   12.8360 O   0  0  0  0  0  0  0  0  0  0  0  0
   28.7600   35.0830   12.2600 H   0  0  0  0  0  0  0  0  0  0  0  0
   32.8650   36.4860   16.3200 O   0  0  0  0  0  0  0  0  0  0  0  0
   33.0960   36.0870   17.6480 C   0  0  0  0  0  0  0  0  0  0  0  0
   31.9120   35.4410   18.2650 C   0  0  0  0  0  0  0  0  0  0  0  0
   31.9140   34.1330   18.6850 C   0  0  0  0  0  0  0  0  0  0  0  0
   30.7010   35.9270   18.5270 N   0  0  0  0  0  0  0  0  0  0  0  0
   30.6860   33.8610   19.1980 N   0  0  0  0  0  0  0  0  0  0  0  0
   29.9940   34.9580   19.0840 N   0  0  0  0  0  0  0  0  0  0  0  0
   30.3340   32.5530   19.7420 C   0  0  1  0  0  0  0  0  0  0  0  0
   31.3710   32.1310   20.7460 C   0  0  0  0  0  0  0  0  0  0  0  0
   31.3560   30.6810   20.9960 C   0  0  0  0  0  0  0  0  0  0  0  0
   31.1730   29.9000   20.0290 O   0  0  0  0  0  0  0  0  0  0  0  0
   31.5430   30.2130   22.2870 O   0  0  0  0  0  0  0  0  0  0  0  0
   32.3500   29.6000   22.4840 H   0  0  0  0  0  0  0  0  0  0  0  0
   29.0450   32.6850   20.4750 C   0  0  0  0  0  0  0  0  0  0  0  0
   27.9950   32.0670   20.1640 O   0  0  0  0  0  0  0  0  0  0  0  0
   28.9970   33.5410   21.5620 O   0  0  0  0  0  0  0  0  0  0  0  0
   28.2290   34.1830   21.7190 H   0  0  0  0  0  0  0  0  0  0  0  0
   29.8670   25.5550   16.9770 C   0  0  0  0  0  0  0  0  0  0  0  0
   28.3450   25.7220   17.0260 C   0  0  0  0  0  0  0  0  0  0  0  0
   27.6020   24.4000   16.9130 C   0  0  0  0  0  0  0  0  0  0  0  0
   26.1440   24.5390   17.2540 C   0  0  0  0  0  0  0  0  0  0  0  0
   25.6090   23.2020   17.7580 C   0  0  0  0  0  0  0  0  0  0  0  0
   25.5250   23.2020   19.2380 N   0  0  0  0  0  0  0  0  0  0  0  0
  1  4  1  0  0  0  0
  1  2  1  0  0  0  0
  2 31  1  0  0  0  0
  3  2  2  0  0  0  0
  5  1  1  0  0  0  0
  6  5  1  6  0  0  0
  6  7  1  0  0  0  0
  7 27  1  1  0  0  0
  8  7  1  6  0  0  0
  8 13  1  0  0  0  0
  8 11  1  0  0  0  0
  9 14  1  6  0  0  0
  9 11  1  0  0  0  0
  9 16  1  0  0  0  0
 10 12  1  0  0  0  0
 10  9  1  0  0  0  0
 12 20  1  6  0  0  0
 12 13  1  0  0  0  0
 13 22  1  1  0  0  0
 15 14  1  0  0  0  0
 16 18  1  0  0  0  0
 17 16  2  0  0  0  0
 18 19  1  0  0  0  0
 21 20  1  0  0  0  0
 22 23  1  0  0  0  0
 22 24  1  0  0  0  0
 23 25  1  0  0  0  0
 26 23  2  0  0  0  0
 28 27  1  0  0  0  0
 29  6  1  0  0  0  0
 30 29  1  0  0  0  0
 31 32  1  0  0  0  0
 32 33  1  0  0  0  0
 33 35  1  0  0  0  0
 33 34  2  0  0  0  0
 34 36  1  0  0  0  0
 35 37  2  0  0  0  0
 36 38  1  0  0  0  0
 37 36  1  0  0  0  0
 38 44  1  0  0  0  0
 38 39  1  1  0  0  0
 39 40  1  0  0  0  0
 40 42  1  0  0  0  0
 41 40  2  0  0  0  0
 42 43  1  0  0  0  0
 44 46  1  0  0  0  0
 45 44  2  0  0  0  0
 46 47  1  0  0  0  0
 48 49  1  0  0  0  0
 50 49  1  0  0  0  0
 50 51  1  0  0  0  0
 51 52  1  0  0  0  0
 52 53  1  0  0  0  0
M  END
>  <REMARK>
 VINA RESULT:    -4.500      2.805      7.102
 INTER + INTRA:         -14.586
 INTER:                  -6.390
 INTRA:                  -8.195
 UNBOUND:                -5.744
 SMILES CC(=O)N[C@@H]1[C@@H](O)C[C@](O)(C(=O)O)O[C@H]1C(O)[C@H](O)CNC(=O)OCc1cn([C@@H](CC(=O)O)C(=O)O)nn1
 SMILES IDX 21 1 22 2 23 3 20 5 18 6 16 7 15 8 9 9 8 10 14 11 6 12 5 13
 SMILES IDX 10 14 11 16 12 17 13 18 7 20 4 22 2 23 1 25 3 26 17 27 19 29
 SMILES IDX 24 31 25 32 26 33 27 34 38 35 28 36 37 37 29 38 30 39 31 40
 SMILES IDX 32 41 33 42 34 44 35 45 36 46
 H PARENT 21 4 10 15 13 19 7 21 4 24 17 28 19 30 33 43 36 47
 Flexibility Score: inf
  4 active torsions:
  status: ('A' for Active; 'I' for Inactive)
    1  A    between atoms: CA   and  CB  
    2  A    between atoms: CB   and  CG  
    3  A    between atoms: CG   and  CD  
    4  A    between atoms: CD   and  CE  

>  <TORSDO>
F 20

>  <BEGIN_>
RES LYS A 131

$$$$
ligand_10_pose_14_2HRL.pdbqt
 OpenBabel07062320523D

  6  5  0  0  0  0  0  0  0  0999 V2000
   33.1930   34.6630    9.2900 C   0  0  0  0  0  0  0  0  0  0  0  0
   32.0600   35.3600   10.0340 C   0  0  0  0  0  0  0  0  0  0  0  0
   30.7340   34.6550    9.9100 C   0  0  0  0  0  0  0  0  0  0  0  0
   30.3320   34.5210    8.4490 C   0  0  0  0  0  0  0  0  0  0  0  0
   28.8220   34.5390    8.3090 C   0  0  0  0  0  0  0  0  0  0  0  0
   28.1690   33.8150    9.4350 N   0  0  0  0  0  0  0  0  0  0  0  0
  1  2  1  0  0  0  0
  3  2  1  0  0  0  0
  4  3  1  0  0  0  0
  5  4  1  0  0  0  0
  5  6  1  0  0  0  0
M  END
>  <EGIN_R>
ES LYS A 135

>  <REMARK>
  4 active torsions:
  status: ('A' for Active; 'I' for Inactive)
    5  A    between atoms: CA   and  CB  
    6  A    between atoms: CB   and  CG  
    7  A    between atoms: CG   and  CD  
    8  A    between atoms: CD   and  CE  

$$$$
