ligand_38_pose_9_2HRL.pdbqt
 OpenBabel07062320523D

 51 52  0  0  1  0  0  0  0  0999 V2000
   33.3530   39.2480    6.4110 N   0  0  0  0  0  0  0  0  0  0  0  0
   32.6930   40.1970    7.2270 C   0  0  0  0  0  0  0  0  0  0  0  0
   32.5110   41.3900    6.8190 O   0  0  0  0  0  0  0  0  0  0  0  0
   33.4800   38.2830    6.7840 H   0  0  0  0  0  0  0  0  0  0  0  0
   33.7990   39.6890    5.1170 C   0  0  0  0  0  0  0  0  0  0  0  0
   35.2820   40.0880    5.1470 C   0  0  2  0  0  0  0  0  0  0  0  0
   35.9070   39.2350    6.1950 C   0  0  2  0  0  0  0  0  0  0  0  0
   37.3870   39.3940    6.3840 C   0  0  2  0  0  0  0  0  0  0  0  0
   38.7820   40.7100    7.7180 C   0  0  2  0  0  0  0  0  0  0  0  0
   39.8030   40.6430    6.5970 C   0  0  0  0  0  0  0  0  0  0  0  0
   37.5220   40.5170    7.2090 O   0  0  0  0  0  0  0  0  0  0  0  0
   39.1190   40.6820    5.2400 C   0  0  1  0  0  0  0  0  0  0  0  0
   38.2090   39.4420    5.1550 C   0  0  1  0  0  0  0  0  0  0  0  0
   38.8060   42.0500    8.1610 O   0  0  0  0  0  0  0  0  0  0  0  0
   39.7170   42.3860    8.2640 H   0  0  0  0  0  0  0  0  0  0  0  0
   39.1390   39.8620    8.8570 C   0  0  0  0  0  0  0  0  0  0  0  0
   38.7900   40.1830   10.0170 O   0  0  0  0  0  0  0  0  0  0  0  0
   39.8650   38.6860    8.7270 O   0  0  0  0  0  0  0  0  0  0  0  0
   40.4950   38.4150    9.4560 H   0  0  0  0  0  0  0  0  0  0  0  0
   38.4260   41.8500    5.0550 O   0  0  0  0  0  0  0  0  0  0  0  0
   39.0230   42.5070    4.5760 H   0  0  0  0  0  0  0  0  0  0  0  0
   39.1520   38.3190    5.0890 N   0  0  0  0  0  0  0  0  0  0  0  0
   38.9090   37.1940    4.2560 C   0  0  0  0  0  0  0  0  0  0  0  0
   40.0330   38.2930    5.6470 H   0  0  0  0  0  0  0  0  0  0  0  0
   39.8890   36.0510    4.2060 C   0  0  0  0  0  0  0  0  0  0  0  0
   37.8930   37.1120    3.5470 O   0  0  0  0  0  0  0  0  0  0  0  0
   35.7410   37.8960    5.7510 O   0  0  0  0  0  0  0  0  0  0  0  0
   34.7790   37.6930    5.9280 H   0  0  0  0  0  0  0  0  0  0  0  0
   35.2990   41.4510    5.4280 O   0  0  0  0  0  0  0  0  0  0  0  0
   36.1930   41.7990    5.2210 H   0  0  0  0  0  0  0  0  0  0  0  0
   32.2120   39.9040    8.4950 O   0  0  0  0  0  0  0  0  0  0  0  0
   30.8780   40.1470    8.9030 C   0  0  0  0  0  0  0  0  0  0  0  0
   29.9040   39.6450    7.8980 C   0  0  0  0  0  0  0  0  0  0  0  0
   29.5980   38.3030    7.6420 C   0  0  0  0  0  0  0  0  0  0  0  0
   29.1300   40.3420    7.0460 N   0  0  0  0  0  0  0  0  0  0  0  0
   28.6790   38.2560    6.6720 N   0  0  0  0  0  0  0  0  0  0  0  0
   28.4110   39.5020    6.3290 N   0  0  0  0  0  0  0  0  0  0  0  0
   28.0580   37.0950    6.0730 C   0  0  0  0  0  0  0  0  0  0  0  0
   27.2340   36.3780    7.0800 C   0  0  0  0  0  0  0  0  0  0  0  0
   27.5710   35.1110    7.5040 C   0  0  0  0  0  0  0  0  0  0  0  0
   26.1200   36.9720    7.6030 C   0  0  0  0  0  0  0  0  0  0  0  0
   26.7980   34.4340    8.4510 C   0  0  0  0  0  0  0  0  0  0  0  0
   25.3400   36.3070    8.5480 C   0  0  0  0  0  0  0  0  0  0  0  0
   25.6840   35.0330    8.9720 C   0  0  0  0  0  0  0  0  0  0  0  0
   23.8000   37.1650    9.2530 Br  0  0  0  0  0  0  0  0  0  0  0  0
   29.8670   25.5550   16.9770 C   0  0  0  0  0  0  0  0  0  0  0  0
   28.3450   25.7220   17.0260 C   0  0  0  0  0  0  0  0  0  0  0  0
   27.6000   24.4080   16.8490 C   0  0  0  0  0  0  0  0  0  0  0  0
   26.1570   24.5150   17.2570 C   0  0  0  0  0  0  0  0  0  0  0  0
   26.0730   24.9050   18.7290 C   0  0  0  0  0  0  0  0  0  0  0  0
   24.7410   24.5630   19.2810 N   0  0  0  0  0  0  0  0  0  0  0  0
  1  4  1  0  0  0  0
  1  2  1  0  0  0  0
  2 31  1  0  0  0  0
  3  2  2  0  0  0  0
  5  1  1  0  0  0  0
  6  5  1  1  0  0  0
  6 29  1  0  0  0  0
  6  7  1  0  0  0  0
  7 27  1  6  0  0  0
  8  7  1  6  0  0  0
  8 11  1  0  0  0  0
  9 14  1  1  0  0  0
  9 16  1  0  0  0  0
 10  9  1  0  0  0  0
 11  9  1  0  0  0  0
 12 20  1  1  0  0  0
 12 10  1  0  0  0  0
 13 22  1  1  0  0  0
 13 12  1  0  0  0  0
 13  8  1  0  0  0  0
 14 15  1  0  0  0  0
 16 17  2  0  0  0  0
 18 16  1  0  0  0  0
 18 19  1  0  0  0  0
 21 20  1  0  0  0  0
 22 24  1  0  0  0  0
 23 22  1  0  0  0  0
 25 23  1  0  0  0  0
 26 23  2  0  0  0  0
 27 28  1  0  0  0  0
 30 29  1  0  0  0  0
 31 32  1  0  0  0  0
 33 32  1  0  0  0  0
 34 33  2  0  0  0  0
 35 33  1  0  0  0  0
 36 34  1  0  0  0  0
 37 36  1  0  0  0  0
 37 35  2  0  0  0  0
 38 36  1  0  0  0  0
 38 39  1  0  0  0  0
 39 40  2  0  0  0  0
 39 41  1  0  0  0  0
 40 42  1  0  0  0  0
 41 43  2  0  0  0  0
 42 44  2  0  0  0  0
 43 44  1  0  0  0  0
 43 45  1  0  0  0  0
 46 47  1  0  0  0  0
 48 47  1  0  0  0  0
 48 49  1  0  0  0  0
 49 50  1  0  0  0  0
 50 51  1  0  0  0  0
M  END
>  <REMARK>
 VINA RESULT:    -4.697      6.902     11.458
 INTER + INTRA:         -14.698
 INTER:                 -10.004
 INTRA:                  -4.694
 UNBOUND:                -6.295
 SMILES CC(=O)N[C@@H]1[C@@H](O)C[C@](O)(C(=O)O)O[C@H]1C(O)[C@H](O)CNC(=O)OCc1cn(Cc2cccc(Br)c2)nn1
 SMILES IDX 21 1 22 2 23 3 20 5 18 6 16 7 15 8 9 9 8 10 14 11 6 12 5 13
 SMILES IDX 10 14 11 16 12 17 13 18 7 20 4 22 2 23 1 25 3 26 17 27 19 29
 SMILES IDX 24 31 25 32 26 33 27 34 38 35 28 36 37 37 29 38 30 39 31 40
 SMILES IDX 36 41 32 42 34 43 33 44 35 45
 H PARENT 21 4 10 15 13 19 7 21 4 24 17 28 19 30
 Flexibility Score: inf
  4 active torsions:
  status: ('A' for Active; 'I' for Inactive)
    1  A    between atoms: CA   and  CB  
    2  A    between atoms: CB   and  CG  
    3  A    between atoms: CG   and  CD  
    4  A    between atoms: CD   and  CE  

>  <TORSDO>
F 16

>  <BEGIN_>
RES LYS A 131

$$$$
ligand_38_pose_9_2HRL.pdbqt
 OpenBabel07062320523D

  6  5  0  0  0  0  0  0  0  0999 V2000
   33.1930   34.6630    9.2900 C   0  0  0  0  0  0  0  0  0  0  0  0
   32.0600   35.3600   10.0340 C   0  0  0  0  0  0  0  0  0  0  0  0
   30.6880   34.9510    9.5620 C   0  0  0  0  0  0  0  0  0  0  0  0
   29.7100   34.9110   10.7270 C   0  0  0  0  0  0  0  0  0  0  0  0
   30.4560   34.8820   12.0470 C   0  0  0  0  0  0  0  0  0  0  0  0
   29.6180   35.4330   13.1480 N   0  0  0  0  0  0  0  0  0  0  0  0
  1  2  1  0  0  0  0
  3  2  1  0  0  0  0
  3  4  1  0  0  0  0
  4  5  1  0  0  0  0
  5  6  1  0  0  0  0
M  END
>  <EGIN_R>
ES LYS A 135

>  <REMARK>
  4 active torsions:
  status: ('A' for Active; 'I' for Inactive)
    5  A    between atoms: CA   and  CB  
    6  A    between atoms: CB   and  CG  
    7  A    between atoms: CG   and  CD  
    8  A    between atoms: CD   and  CE  

$$$$
