ligand_65_pose_16_2HRL.pdbqt
 OpenBabel07062320523D

 53 54  0  0  1  0  0  0  0  0999 V2000
   29.2520   34.5400   14.2780 N   0  0  0  0  0  0  0  0  0  0  0  0
   29.7600   35.6930   14.9080 C   0  0  0  0  0  0  0  0  0  0  0  0
   29.0790   36.4550   15.6290 O   0  0  0  0  0  0  0  0  0  0  0  0
   29.8630   33.9100   13.6750 H   0  0  0  0  0  0  0  0  0  0  0  0
   27.8580   34.1870   14.4420 C   0  0  0  0  0  0  0  0  0  0  0  0
   27.7670   32.9580   15.2900 C   0  0  2  0  0  0  0  0  0  0  0  0
   27.5530   33.3370   16.7410 C   0  0  2  0  0  0  0  0  0  0  0  0
   26.6400   32.2930   17.3660 C   0  0  2  0  0  0  0  0  0  0  0  0
   27.6020   30.1450   17.4810 C   0  0  2  0  0  0  0  0  0  0  0  0
   26.8130   29.6850   16.2960 C   0  0  0  0  0  0  0  0  0  0  0  0
   27.3890   31.3660   17.9610 O   0  0  0  0  0  0  0  0  0  0  0  0
   25.4360   30.3290   16.3870 C   0  0  1  0  0  0  0  0  0  0  0  0
   25.7260   31.8240   16.2650 C   0  0  1  0  0  0  0  0  0  0  0  0
   28.9630   30.0470   17.1050 O   0  0  0  0  0  0  0  0  0  0  0  0
   29.1650   29.1660   16.7140 H   0  0  0  0  0  0  0  0  0  0  0  0
   27.3980   29.1450   18.5600 C   0  0  0  0  0  0  0  0  0  0  0  0
   26.8710   29.4770   19.6520 O   0  0  0  0  0  0  0  0  0  0  0  0
   27.7730   27.8200   18.4160 O   0  0  0  0  0  0  0  0  0  0  0  0
   28.7180   27.4880   18.6180 H   0  0  0  0  0  0  0  0  0  0  0  0
   24.6260   29.9600   15.3310 O   0  0  0  0  0  0  0  0  0  0  0  0
   25.2090   29.5100   14.6550 H   0  0  0  0  0  0  0  0  0  0  0  0
   24.4990   32.5890   16.2430 N   0  0  0  0  0  0  0  0  0  0  0  0
   23.9450   33.0490   15.0210 C   0  0  0  0  0  0  0  0  0  0  0  0
   24.0580   32.7760   17.1720 H   0  0  0  0  0  0  0  0  0  0  0  0
   22.6870   33.8280   15.0670 C   0  0  0  0  0  0  0  0  0  0  0  0
   24.4820   32.8190   13.9160 O   0  0  0  0  0  0  0  0  0  0  0  0
   26.8970   34.5970   16.7780 O   0  0  0  0  0  0  0  0  0  0  0  0
   27.4450   35.1320   17.4200 H   0  0  0  0  0  0  0  0  0  0  0  0
   28.9420   32.2080   15.1330 O   0  0  0  0  0  0  0  0  0  0  0  0
   29.0120   31.5150   15.8130 H   0  0  0  0  0  0  0  0  0  0  0  0
   31.1150   36.0150   14.7250 O   0  0  0  0  0  0  0  0  0  0  0  0
   31.9990   35.7510   15.7930 C   0  0  0  0  0  0  0  0  0  0  0  0
   31.6180   34.4420   16.4170 C   0  0  0  0  0  0  0  0  0  0  0  0
   31.1590   34.2270   17.7030 C   0  0  0  0  0  0  0  0  0  0  0  0
   31.6450   33.2110   15.8570 N   0  0  0  0  0  0  0  0  0  0  0  0
   30.9230   32.9130   17.8910 N   0  0  0  0  0  0  0  0  0  0  0  0
   31.2270   32.3250   16.7560 N   0  0  0  0  0  0  0  0  0  0  0  0
   30.4390   32.2970   19.0890 C   0  0  0  0  0  0  0  0  0  0  0  0
   29.7300   32.9840   20.0030 N   0  0  0  0  0  0  0  0  0  0  0  0
   30.6810   30.9960   19.3430 N   0  0  0  0  0  0  0  0  0  0  0  0
   29.2590   32.4430   21.1390 C   0  0  0  0  0  0  0  0  0  0  0  0
   30.2320   30.3920   20.4730 C   0  0  0  0  0  0  0  0  0  0  0  0
   29.5320   31.1260   21.3440 N   0  0  0  0  0  0  0  0  0  0  0  0
   30.4920   28.9570   20.7640 C   0  0  0  0  0  0  0  0  0  0  0  0
   28.5150   33.1600   22.0990 N   0  0  0  0  0  0  0  0  0  0  0  0
   27.4960   33.0350   22.1600 H   0  0  0  0  0  0  0  0  0  0  0  0
   28.9960   33.8090   22.7370 H   0  0  0  0  0  0  0  0  0  0  0  0
   29.8670   25.5550   16.9770 C   0  0  0  0  0  0  0  0  0  0  0  0
   28.3450   25.7220   17.0260 C   0  0  0  0  0  0  0  0  0  0  0  0
   27.6010   24.4030   16.8870 C   0  0  0  0  0  0  0  0  0  0  0  0
   26.5720   24.2170   17.9670 C   0  0  0  0  0  0  0  0  0  0  0  0
   25.1790   24.2040   17.3460 C   0  0  0  0  0  0  0  0  0  0  0  0
   24.1600   24.5980   18.3480 N   0  0  0  0  0  0  0  0  0  0  0  0
  1  5  1  0  0  0  0
  1  2  1  0  0  0  0
  2  3  2  0  0  0  0
  4  1  1  0  0  0  0
  6  5  1  6  0  0  0
  6  7  1  0  0  0  0
  7 27  1  6  0  0  0
  8  7  1  6  0  0  0
  8 11  1  0  0  0  0
  9 14  1  6  0  0  0
  9 11  1  0  0  0  0
  9 16  1  0  0  0  0
 10 12  1  0  0  0  0
 10  9  1  0  0  0  0
 12 20  1  6  0  0  0
 13 22  1  1  0  0  0
 13 12  1  0  0  0  0
 13  8  1  0  0  0  0
 15 14  1  0  0  0  0
 16 17  2  0  0  0  0
 18 16  1  0  0  0  0
 18 19  1  0  0  0  0
 21 20  1  0  0  0  0
 22 24  1  0  0  0  0
 23 25  1  0  0  0  0
 23 22  1  0  0  0  0
 26 23  2  0  0  0  0
 27 28  1  0  0  0  0
 29  6  1  0  0  0  0
 29 30  1  0  0  0  0
 31  2  1  0  0  0  0
 31 32  1  0  0  0  0
 32 33  1  0  0  0  0
 33 34  2  0  0  0  0
 34 36  1  0  0  0  0
 35 33  1  0  0  0  0
 35 37  2  0  0  0  0
 36 38  1  0  0  0  0
 37 36  1  0  0  0  0
 38 40  1  0  0  0  0
 38 39  2  0  0  0  0
 39 41  2  0  0  0  0
 40 42  2  0  0  0  0
 41 43  1  0  0  0  0
 41 45  1  0  0  0  0
 42 44  1  0  0  0  0
 42 43  1  0  0  0  0
 45 46  1  0  0  0  0
 45 47  1  0  0  0  0
 48 49  1  0  0  0  0
 50 49  1  0  0  0  0
 50 51  1  0  0  0  0
 52 51  1  0  0  0  0
 52 53  1  0  0  0  0
M  END
>  <REMARK>
 VINA RESULT:    -5.001      2.905      7.019
 INTER + INTRA:         -13.935
 INTER:                  -6.289
 INTRA:                  -7.646
 UNBOUND:                -5.134
 SMILES CC(=O)N[C@@H]1[C@@H](O)C[C@](O)(C(=O)O)O[C@H]1C(O)[C@H](O)CNC(=O)OCc1cn(-c2nc(C)nc(N)n2)nn1
 SMILES IDX 21 1 22 2 23 3 20 5 18 6 16 7 15 8 9 9 8 10 14 11 6 12 5 13
 SMILES IDX 10 14 11 16 12 17 13 18 7 20 4 22 2 23 1 25 3 26 17 27 19 29
 SMILES IDX 24 31 25 32 26 33 27 34 38 35 28 36 37 37 29 38 36 39 30 40
 SMILES IDX 34 41 31 42 33 43 32 44 35 45
 H PARENT 21 4 10 15 13 19 7 21 4 24 17 28 19 30 35 46 35 47
 Flexibility Score: inf
  4 active torsions:
  status: ('A' for Active; 'I' for Inactive)
    1  A    between atoms: CA   and  CB  
    2  A    between atoms: CB   and  CG  
    3  A    between atoms: CG   and  CD  
    4  A    between atoms: CD   and  CE  

>  <TORSDO>
F 16

>  <BEGIN_>
RES LYS A 131

$$$$
ligand_65_pose_16_2HRL.pdbqt
 OpenBabel07062320523D

  6  5  0  0  0  0  0  0  0  0999 V2000
   33.1930   34.6630    9.2900 C   0  0  0  0  0  0  0  0  0  0  0  0
   32.0600   35.3600   10.0340 C   0  0  0  0  0  0  0  0  0  0  0  0
   30.8090   35.5240    9.2100 C   0  0  0  0  0  0  0  0  0  0  0  0
   30.1610   34.1740    8.9440 C   0  0  0  0  0  0  0  0  0  0  0  0
   28.6950   34.3460    8.5970 C   0  0  0  0  0  0  0  0  0  0  0  0
   27.8230   33.6830    9.6060 N   0  0  0  0  0  0  0  0  0  0  0  0
  1  2  1  0  0  0  0
  3  2  1  0  0  0  0
  4  3  1  0  0  0  0
  5  4  1  0  0  0  0
  5  6  1  0  0  0  0
M  END
>  <EGIN_R>
ES LYS A 135

>  <REMARK>
  4 active torsions:
  status: ('A' for Active; 'I' for Inactive)
    5  A    between atoms: CA   and  CB  
    6  A    between atoms: CB   and  CG  
    7  A    between atoms: CG   and  CD  
    8  A    between atoms: CD   and  CE  

$$$$
