ligand_48_pose_9_2HRL.pdbqt
 OpenBabel07062320523D

 49 50  0  0  1  0  0  0  0  0999 V2000
   26.4730   27.7660   20.1490 C   0  0  0  0  0  0  0  0  0  0  0  0
   27.9500   27.6310   20.4900 C   0  0  2  0  0  0  0  0  0  0  0  0
   28.5430   29.0050   20.4350 C   0  0  1  0  0  0  0  0  0  0  0  0
   29.2460   29.4490   21.7000 C   0  0  2  0  0  0  0  0  0  0  0  0
   28.6940   31.6840   22.1890 C   0  0  2  0  0  0  0  0  0  0  0  0
   30.1570   32.0350   22.3980 C   0  0  0  0  0  0  0  0  0  0  0  0
   28.5200   30.3600   22.4160 O   0  0  0  0  0  0  0  0  0  0  0  0
   31.0470   31.2170   21.5010 C   0  0  1  0  0  0  0  0  0  0  0  0
   30.6970   29.7430   21.5440 C   0  0  1  0  0  0  0  0  0  0  0  0
   28.2460   32.1480   20.9530 O   0  0  0  0  0  0  0  0  0  0  0  0
   27.6840   31.4200   20.5380 H   0  0  0  0  0  0  0  0  0  0  0  0
   27.9580   32.4260   23.2500 C   0  0  0  0  0  0  0  0  0  0  0  0
   27.6330   31.8440   24.3090 O   0  0  0  0  0  0  0  0  0  0  0  0
   27.6400   33.7400   23.0660 O   0  0  0  0  0  0  0  0  0  0  0  0
   27.3530   34.3730   23.8020 H   0  0  0  0  0  0  0  0  0  0  0  0
   31.0390   31.7110   20.2030 O   0  0  0  0  0  0  0  0  0  0  0  0
   31.3110   32.6610   20.2010 H   0  0  0  0  0  0  0  0  0  0  0  0
   31.4850   29.0990   22.5970 N   0  0  0  0  0  0  0  0  0  0  0  0
   32.0120   27.8140   22.3510 C   0  0  0  0  0  0  0  0  0  0  0  0
   31.6610   29.5620   23.5090 H   0  0  0  0  0  0  0  0  0  0  0  0
   32.8290   27.0750   23.3630 C   0  0  0  0  0  0  0  0  0  0  0  0
   31.8300   27.1990   21.2530 O   0  0  0  0  0  0  0  0  0  0  0  0
   29.2160   29.2620   19.2700 O   0  0  0  0  0  0  0  0  0  0  0  0
   29.7870   28.4890   18.9610 H   0  0  0  0  0  0  0  0  0  0  0  0
   28.5000   26.7120   19.6290 O   0  0  0  0  0  0  0  0  0  0  0  0
   27.7940   26.1830   19.2260 H   0  0  0  0  0  0  0  0  0  0  0  0
   26.3280   28.8400   19.1950 N   0  0  0  0  0  0  0  0  0  0  0  0
   25.7910   28.7080   17.8900 C   0  0  0  0  0  0  0  0  0  0  0  0
   26.6340   29.8300   19.4470 H   0  0  0  0  0  0  0  0  0  0  0  0
   25.4040   27.5820   17.4950 O   0  0  0  0  0  0  0  0  0  0  0  0
   25.6850   29.8000   17.0340 O   0  0  0  0  0  0  0  0  0  0  0  0
   26.6920   30.0420   16.0850 C   0  0  0  0  0  0  0  0  0  0  0  0
   27.7390   30.8830   16.7220 C   0  0  0  0  0  0  0  0  0  0  0  0
   28.9810   31.2210   16.1670 C   0  0  0  0  0  0  0  0  0  0  0  0
   27.7500   31.4890   17.9250 N   0  0  0  0  0  0  0  0  0  0  0  0
   29.6630   31.9920   17.0310 N   0  0  0  0  0  0  0  0  0  0  0  0
   28.8890   32.1370   18.0920 N   0  0  0  0  0  0  0  0  0  0  0  0
   30.9930   32.5530   16.8360 C   0  0  0  0  0  0  0  0  0  0  0  0
   31.3230   32.5430   15.3590 C   0  0  0  0  0  0  0  0  0  0  0  0
   31.0220   33.9880   17.3140 C   0  0  0  0  0  0  0  0  0  0  0  0
   31.2070   33.9290   14.7520 C   0  0  0  0  0  0  0  0  0  0  0  0
   32.3470   34.5740   16.8600 C   0  0  0  0  0  0  0  0  0  0  0  0
   32.2250   34.8470   15.3740 C   0  0  0  0  0  0  0  0  0  0  0  0
   29.8670   25.5550   16.9770 C   0  0  0  0  0  0  0  0  0  0  0  0
   28.3450   25.7220   17.0260 C   0  0  0  0  0  0  0  0  0  0  0  0
   27.6020   24.3980   16.9290 C   0  0  0  0  0  0  0  0  0  0  0  0
   26.5320   24.2720   17.9780 C   0  0  0  0  0  0  0  0  0  0  0  0
   25.2300   23.8180   17.3240 C   0  0  0  0  0  0  0  0  0  0  0  0
   25.0460   22.3580   17.4940 N   0  0  0  0  0  0  0  0  0  0  0  0
  2  1  1  6  0  0  0
  3 23  1  6  0  0  0
  3  2  1  0  0  0  0
  4  3  1  6  0  0  0
  4  7  1  0  0  0  0
  5 10  1  6  0  0  0
  5  6  1  0  0  0  0
  5  7  1  0  0  0  0
  5 12  1  0  0  0  0
  8 16  1  6  0  0  0
  8  9  1  0  0  0  0
  8  6  1  0  0  0  0
  9  4  1  0  0  0  0
  9 18  1  1  0  0  0
 11 10  1  0  0  0  0
 12 13  2  0  0  0  0
 14 12  1  0  0  0  0
 14 15  1  0  0  0  0
 17 16  1  0  0  0  0
 18 20  1  0  0  0  0
 19 18  1  0  0  0  0
 19 21  1  0  0  0  0
 22 19  2  0  0  0  0
 24 23  1  0  0  0  0
 25  2  1  0  0  0  0
 26 25  1  0  0  0  0
 27 29  1  0  0  0  0
 27  1  1  0  0  0  0
 28 27  1  0  0  0  0
 30 28  2  0  0  0  0
 31 28  1  0  0  0  0
 32 33  1  0  0  0  0
 32 31  1  0  0  0  0
 33 35  1  0  0  0  0
 34 33  2  0  0  0  0
 34 36  1  0  0  0  0
 35 37  2  0  0  0  0
 36 37  1  0  0  0  0
 38 36  1  0  0  0  0
 38 40  1  0  0  0  0
 39 38  1  0  0  0  0
 41 39  1  0  0  0  0
 41 43  1  0  0  0  0
 42 40  1  0  0  0  0
 43 42  1  0  0  0  0
 44 45  1  0  0  0  0
 46 45  1  0  0  0  0
 46 47  1  0  0  0  0
 48 49  1  0  0  0  0
 48 47  1  0  0  0  0
M  END
>  <REMARK>
 VINA RESULT:    -4.741      1.811      2.377
 INTER + INTRA:         -14.002
 INTER:                  -7.208
 INTRA:                  -6.794
 UNBOUND:                -5.796
 SMILES CC(=O)N[C@@H]1[C@@H](O)C[C@](O)(C(=O)O)O[C@H]1C(O)[C@H](O)CNC(=O)OCc1cn(C2CCCCC2)nn1
 SMILES IDX 20 1 18 2 16 3 15 4 9 5 8 6 14 7 6 8 5 9 10 10 11 12 12 13
 SMILES IDX 13 14 7 16 4 18 2 19 1 21 3 22 17 23 19 25 21 27 22 28 23 30
 SMILES IDX 24 31 25 32 26 33 27 34 36 35 28 36 35 37 29 38 30 39 34 40
 SMILES IDX 31 41 33 42 32 43
 H PARENT 10 11 13 15 7 17 4 20 17 24 19 26 21 29
 Flexibility Score: inf
  4 active torsions:
  status: ('A' for Active; 'I' for Inactive)
    1  A    between atoms: CA   and  CB  
    2  A    between atoms: CB   and  CG  
    3  A    between atoms: CG   and  CD  
    4  A    between atoms: CD   and  CE  

>  <TORSDO>
F 15

>  <BEGIN_>
RES LYS A 131

$$$$
ligand_48_pose_9_2HRL.pdbqt
 OpenBabel07062320523D

  6  5  0  0  0  0  0  0  0  0999 V2000
   33.1930   34.6630    9.2900 C   0  0  0  0  0  0  0  0  0  0  0  0
   32.0600   35.3600   10.0340 C   0  0  0  0  0  0  0  0  0  0  0  0
   30.8190   35.5500    9.2000 C   0  0  0  0  0  0  0  0  0  0  0  0
   30.0680   34.2360    9.0490 C   0  0  0  0  0  0  0  0  0  0  0  0
   28.7000   34.4720    8.4370 C   0  0  0  0  0  0  0  0  0  0  0  0
   28.8010   35.2910    7.1970 N   0  0  0  0  0  0  0  0  0  0  0  0
  1  2  1  0  0  0  0
  3  2  1  0  0  0  0
  4  3  1  0  0  0  0
  5  4  1  0  0  0  0
  6  5  1  0  0  0  0
M  END
>  <EGIN_R>
ES LYS A 135

>  <REMARK>
  4 active torsions:
  status: ('A' for Active; 'I' for Inactive)
    5  A    between atoms: CA   and  CB  
    6  A    between atoms: CB   and  CG  
    7  A    between atoms: CG   and  CD  
    8  A    between atoms: CD   and  CE  

$$$$
