ligand_73_pose_5_2HRL.pdbqt
 OpenBabel07062320523D

 54 55  0  0  1  0  0  0  0  0999 V2000
   23.5800   37.8160   11.1250 N   0  0  0  0  0  0  0  0  0  0  0  0
   23.4830   36.4000   11.1690 C   0  0  0  0  0  0  0  0  0  0  0  0
   23.8830   35.6690   10.2030 O   0  0  0  0  0  0  0  0  0  0  0  0
   23.2520   38.3710   11.9310 H   0  0  0  0  0  0  0  0  0  0  0  0
   24.1410   38.4430    9.9640 C   0  0  0  0  0  0  0  0  0  0  0  0
   25.5980   38.7320   10.0020 C   0  0  2  0  0  0  0  0  0  0  0  0
   26.4900   37.6520    9.4460 C   0  0  1  0  0  0  0  0  0  0  0  0
   27.6820   38.1560    8.6930 C   0  0  2  0  0  0  0  0  0  0  0  0
   28.6960   38.2900    6.6370 C   0  0  2  0  0  0  0  0  0  0  0  0
   29.4680   39.3470    7.3920 C   0  0  0  0  0  0  0  0  0  0  0  0
   27.7040   37.6870    7.3900 O   0  0  0  0  0  0  0  0  0  0  0  0
   30.0630   38.7430    8.6200 C   0  0  1  0  0  0  0  0  0  0  0  0
   28.9620   38.0570    9.4370 C   0  0  1  0  0  0  0  0  0  0  0  0
   29.6120   37.3260    6.2400 O   0  0  0  0  0  0  0  0  0  0  0  0
   29.2970   36.4570    6.6120 H   0  0  0  0  0  0  0  0  0  0  0  0
   28.1380   38.9340    5.4220 C   0  0  0  0  0  0  0  0  0  0  0  0
   28.3270   40.1550    5.1850 O   0  0  0  0  0  0  0  0  0  0  0  0
   27.3940   38.1980    4.5200 O   0  0  0  0  0  0  0  0  0  0  0  0
   26.4130   38.0190    4.6210 H   0  0  0  0  0  0  0  0  0  0  0  0
   31.0330   37.8160    8.1960 O   0  0  0  0  0  0  0  0  0  0  0  0
   31.2590   38.0720    7.2510 H   0  0  0  0  0  0  0  0  0  0  0  0
   28.7970   38.8380   10.6730 N   0  0  0  0  0  0  0  0  0  0  0  0
   29.5280   38.5710   11.8490 C   0  0  0  0  0  0  0  0  0  0  0  0
   28.1070   39.6260   10.6740 H   0  0  0  0  0  0  0  0  0  0  0  0
   29.3310   39.3820   13.0740 C   0  0  0  0  0  0  0  0  0  0  0  0
   30.3480   37.6440   11.8630 O   0  0  0  0  0  0  0  0  0  0  0  0
   26.9450   36.8030   10.4540 O   0  0  0  0  0  0  0  0  0  0  0  0
   26.9180   35.8620   10.2150 H   0  0  0  0  0  0  0  0  0  0  0  0
   25.9250   38.9690   11.3460 O   0  0  0  0  0  0  0  0  0  0  0  0
   25.1630   38.6300   11.8980 H   0  0  0  0  0  0  0  0  0  0  0  0
   22.9410   35.8210   12.2930 O   0  0  0  0  0  0  0  0  0  0  0  0
   23.4550   36.1340   13.5510 C   0  0  0  0  0  0  0  0  0  0  0  0
   24.9390   36.0550   13.6210 C   0  0  0  0  0  0  0  0  0  0  0  0
   25.7240   34.9610   13.9570 C   0  0  0  0  0  0  0  0  0  0  0  0
   25.8220   37.0380   13.3700 N   0  0  0  0  0  0  0  0  0  0  0  0
   27.0230   35.2950   13.9040 N   0  0  0  0  0  0  0  0  0  0  0  0
   27.0580   36.5660   13.5440 N   0  0  0  0  0  0  0  0  0  0  0  0
   28.1650   34.4890   14.1690 C   0  0  0  0  0  0  0  0  0  0  0  0
   29.3850   34.8110   13.6110 C   0  0  0  0  0  0  0  0  0  0  0  0
   28.1200   33.3720   14.9780 C   0  0  0  0  0  0  0  0  0  0  0  0
   30.5100   34.0400   13.8560 C   0  0  0  0  0  0  0  0  0  0  0  0
   29.2170   32.5720   15.2510 C   0  0  0  0  0  0  0  0  0  0  0  0
   30.4270   32.9340   14.6680 C   0  0  0  0  0  0  0  0  0  0  0  0
   29.1530   31.4330   16.0800 N   0  0  0  0  0  0  0  0  0  0  0  0
   28.8600   30.3410   15.5910 O   0  0  0  0  0  0  0  0  0  0  0  0
   29.4140   31.5440   17.4100 O   0  0  0  0  0  0  0  0  0  0  0  0
   31.5290   32.1270   14.9440 O   0  0  0  0  0  0  0  0  0  0  0  0
   31.5290   31.1670   14.5710 H   0  0  0  0  0  0  0  0  0  0  0  0
   29.8670   25.5550   16.9770 C   0  0  0  0  0  0  0  0  0  0  0  0
   28.3450   25.7220   17.0260 C   0  0  0  0  0  0  0  0  0  0  0  0
   27.6010   24.4000   16.9070 C   0  0  0  0  0  0  0  0  0  0  0  0
   26.5030   24.2750   17.9270 C   0  0  0  0  0  0  0  0  0  0  0  0
   25.1700   24.6490   17.2870 C   0  0  0  0  0  0  0  0  0  0  0  0
   24.0520   23.9660   17.9800 N   0  0  0  0  0  0  0  0  0  0  0  0
  1  2  1  0  0  0  0
  1  4  1  0  0  0  0
  2 31  1  0  0  0  0
  3  2  2  0  0  0  0
  5  1  1  0  0  0  0
  6  5  1  1  0  0  0
  6 29  1  0  0  0  0
  7  6  1  0  0  0  0
  7 27  1  1  0  0  0
  8 13  1  0  0  0  0
  8  7  1  1  0  0  0
  9 16  1  6  0  0  0
  9 11  1  0  0  0  0
  9 10  1  0  0  0  0
 10 12  1  0  0  0  0
 11  8  1  0  0  0  0
 12 20  1  6  0  0  0
 12 13  1  0  0  0  0
 13 22  1  1  0  0  0
 14 15  1  0  0  0  0
 14  9  1  0  0  0  0
 17 16  2  0  0  0  0
 18 19  1  0  0  0  0
 18 16  1  0  0  0  0
 21 20  1  0  0  0  0
 22 24  1  0  0  0  0
 22 23  1  0  0  0  0
 23 26  2  0  0  0  0
 23 25  1  0  0  0  0
 28 27  1  0  0  0  0
 29 30  1  0  0  0  0
 31 32  1  0  0  0  0
 32 33  1  0  0  0  0
 33 34  2  0  0  0  0
 35 37  2  0  0  0  0
 35 33  1  0  0  0  0
 36 34  1  0  0  0  0
 36 38  1  0  0  0  0
 37 36  1  0  0  0  0
 38 40  2  0  0  0  0
 39 41  2  0  0  0  0
 39 38  1  0  0  0  0
 40 42  1  0  0  0  0
 41 43  1  0  0  0  0
 42 44  1  0  0  0  0
 43 47  1  0  0  0  0
 43 42  2  0  0  0  0
 44 46  2  0  0  0  0
 45 44  2  0  0  0  0
 48 47  1  0  0  0  0
 49 50  1  0  0  0  0
 51 50  1  0  0  0  0
 51 52  1  0  0  0  0
 53 52  1  0  0  0  0
 53 54  1  0  0  0  0
M  END
>  <REMARK>
 VINA RESULT:    -4.290      4.875      8.924
 INTER + INTRA:         -15.112
 INTER:                  -8.674
 INTRA:                  -6.438
 UNBOUND:                -7.311
 SMILES CC(=O)N[C@@H]1[C@@H](O)C[C@](O)(C(=O)O)O[C@H]1C(O)[C@H](O)CNC(=O)OCc1cn(-c2ccc(O)c([N+](=O)[O-])c2)nn1
 SMILES IDX 21 1 22 2 23 3 20 5 18 6 16 7 15 8 9 9 8 10 14 11 6 12 5 13
 SMILES IDX 10 14 11 16 12 17 13 18 7 20 4 22 2 23 1 25 3 26 17 27 19 29
 SMILES IDX 24 31 25 32 26 33 27 34 40 35 28 36 39 37 29 38 30 39 38 40
 SMILES IDX 31 41 34 42 32 43 35 44 36 45 37 46 33 47
 H PARENT 21 4 10 15 13 19 7 21 4 24 17 28 19 30 33 48
 Flexibility Score: inf
  4 active torsions:
  status: ('A' for Active; 'I' for Inactive)
    1  A    between atoms: CA   and  CB  
    2  A    between atoms: CB   and  CG  
    3  A    between atoms: CG   and  CD  
    4  A    between atoms: CD   and  CE  

>  <TORSDO>
F 17

>  <BEGIN_>
RES LYS A 131

$$$$
ligand_73_pose_5_2HRL.pdbqt
 OpenBabel07062320523D

  6  5  0  0  0  0  0  0  0  0999 V2000
   33.1930   34.6630    9.2900 C   0  0  0  0  0  0  0  0  0  0  0  0
   32.0600   35.3600   10.0340 C   0  0  0  0  0  0  0  0  0  0  0  0
   30.7400   34.6400    9.9320 C   0  0  0  0  0  0  0  0  0  0  0  0
   30.3320   34.4710    8.4770 C   0  0  0  0  0  0  0  0  0  0  0  0
   28.8210   34.4900    8.3420 C   0  0  0  0  0  0  0  0  0  0  0  0
   28.1720   33.7860    9.4830 N   0  0  0  0  0  0  0  0  0  0  0  0
  1  2  1  0  0  0  0
  3  2  1  0  0  0  0
  4  3  1  0  0  0  0
  5  4  1  0  0  0  0
  5  6  1  0  0  0  0
M  END
>  <EGIN_R>
ES LYS A 135

>  <REMARK>
  4 active torsions:
  status: ('A' for Active; 'I' for Inactive)
    5  A    between atoms: CA   and  CB  
    6  A    between atoms: CB   and  CG  
    7  A    between atoms: CG   and  CD  
    8  A    between atoms: CD   and  CE  

$$$$
