ligand_77_pose_12_2HRL.pdbqt
 OpenBabel07062320523D

 61 63  0  0  1  0  0  0  0  0999 V2000
   29.4690   39.8140    5.9840 N   0  0  0  0  0  0  0  0  0  0  0  0
   28.1520   39.7230    6.4920 C   0  0  0  0  0  0  0  0  0  0  0  0
   27.3230   40.6000    6.2240 O   0  0  0  0  0  0  0  0  0  0  0  0
   30.1150   39.0110    6.2640 H   0  0  0  0  0  0  0  0  0  0  0  0
   29.9700   40.8800    5.1470 C   0  0  0  0  0  0  0  0  0  0  0  0
   31.2180   41.4310    5.7440 C   0  0  2  0  0  0  0  0  0  0  0  0
   32.1650   40.3540    6.2320 C   0  0  1  0  0  0  0  0  0  0  0  0
   33.5760   40.5150    5.7790 C   0  0  2  0  0  0  0  0  0  0  0  0
   35.4690   39.2030    5.5270 C   0  0  2  0  0  0  0  0  0  0  0  0
   36.2830   40.4470    5.3510 C   0  0  0  0  0  0  0  0  0  0  0  0
   34.1270   39.3760    5.2380 O   0  0  0  0  0  0  0  0  0  0  0  0
   35.6940   41.6670    5.9630 C   0  0  1  0  0  0  0  0  0  0  0  0
   34.4580   41.2330    6.7700 C   0  0  1  0  0  0  0  0  0  0  0  0
   35.6540   38.6430    6.8110 O   0  0  0  0  0  0  0  0  0  0  0  0
   36.5790   38.3510    6.8890 H   0  0  0  0  0  0  0  0  0  0  0  0
   35.9920   38.1850    4.5680 C   0  0  0  0  0  0  0  0  0  0  0  0
   35.6420   38.2640    3.3500 O   0  0  0  0  0  0  0  0  0  0  0  0
   36.8340   37.1610    4.9190 O   0  0  0  0  0  0  0  0  0  0  0  0
   37.0270   36.4040    4.2670 H   0  0  0  0  0  0  0  0  0  0  0  0
   36.5770   42.3730    6.7640 O   0  0  0  0  0  0  0  0  0  0  0  0
   37.4960   41.9620    6.6860 H   0  0  0  0  0  0  0  0  0  0  0  0
   33.7520   42.4330    7.2010 N   0  0  0  0  0  0  0  0  0  0  0  0
   33.9720   42.9590    8.4990 C   0  0  0  0  0  0  0  0  0  0  0  0
   33.0780   42.9330    6.5850 H   0  0  0  0  0  0  0  0  0  0  0  0
   33.2560   44.1950    8.9750 C   0  0  0  0  0  0  0  0  0  0  0  0
   34.7600   42.4360    9.3150 O   0  0  0  0  0  0  0  0  0  0  0  0
   32.0540   40.3590    7.6280 O   0  0  0  0  0  0  0  0  0  0  0  0
   31.1610   40.6910    7.8570 H   0  0  0  0  0  0  0  0  0  0  0  0
   30.9340   42.3840    6.7110 O   0  0  0  0  0  0  0  0  0  0  0  0
   30.7420   41.9200    7.5640 H   0  0  0  0  0  0  0  0  0  0  0  0
   27.7250   38.6730    7.2980 O   0  0  0  0  0  0  0  0  0  0  0  0
   27.6410   38.7950    8.7100 C   0  0  0  0  0  0  0  0  0  0  0  0
   28.9500   38.5220    9.3680 C   0  0  0  0  0  0  0  0  0  0  0  0
   29.0840   38.0420   10.6420 C   0  0  0  0  0  0  0  0  0  0  0  0
   30.1840   38.6850    8.8730 N   0  0  0  0  0  0  0  0  0  0  0  0
   30.4070   37.9200   10.8990 N   0  0  0  0  0  0  0  0  0  0  0  0
   31.0230   38.3130    9.8190 N   0  0  0  0  0  0  0  0  0  0  0  0
   30.9210   37.4470   12.1330 C   0  0  0  0  0  0  0  0  0  0  0  0
   32.0970   36.7290   12.1650 C   0  0  0  0  0  0  0  0  0  0  0  0
   30.2850   37.6760   13.3340 C   0  0  0  0  0  0  0  0  0  0  0  0
   32.6340   36.2490   13.3480 C   0  0  0  0  0  0  0  0  0  0  0  0
   30.8190   37.1960   14.5340 C   0  0  0  0  0  0  0  0  0  0  0  0
   31.9930   36.4820   14.5400 C   0  0  0  0  0  0  0  0  0  0  0  0
   32.6650   35.8830   16.0160 S   0  0  0  0  0  0  0  0  0  0  0  0
   32.4340   36.8630   17.1150 O   0  0  0  0  0  0  0  0  0  0  0  0
   34.1420   35.6370   15.9200 O   0  0  0  0  0  0  0  0  0  0  0  0
   31.8960   34.3380   16.3640 C   0  0  0  0  0  0  0  0  0  0  0  0
   31.4210   34.1070   17.6270 C   0  0  0  0  0  0  0  0  0  0  0  0
   31.7610   33.3560   15.3870 C   0  0  0  0  0  0  0  0  0  0  0  0
   30.8070   32.9020   17.9460 C   0  0  0  0  0  0  0  0  0  0  0  0
   31.1540   32.1430   15.6710 C   0  0  0  0  0  0  0  0  0  0  0  0
   30.6920   31.9500   16.9520 C   0  0  0  0  0  0  0  0  0  0  0  0
   30.0690   30.7210   17.2630 N   0  0  0  0  0  0  0  0  0  0  0  0
   29.9940   30.4050   18.2440 H   0  0  0  0  0  0  0  0  0  0  0  0
   29.6880   30.1360   16.4990 H   0  0  0  0  0  0  0  0  0  0  0  0
   29.8670   25.5550   16.9770 C   0  0  0  0  0  0  0  0  0  0  0  0
   28.3450   25.7220   17.0260 C   0  0  0  0  0  0  0  0  0  0  0  0
   27.6010   24.4030   16.8870 C   0  0  0  0  0  0  0  0  0  0  0  0
   26.1700   24.5090   17.3360 C   0  0  0  0  0  0  0  0  0  0  0  0
   26.1170   25.1530   18.7180 C   0  0  0  0  0  0  0  0  0  0  0  0
   25.4140   24.2680   19.6760 N   0  0  0  0  0  0  0  0  0  0  0  0
  1  4  1  0  0  0  0
  1  2  1  0  0  0  0
  2 31  1  0  0  0  0
  3  2  2  0  0  0  0
  5  1  1  0  0  0  0
  6  5  1  1  0  0  0
  6  7  1  0  0  0  0
  6 29  1  0  0  0  0
  7 27  1  1  0  0  0
  8  7  1  1  0  0  0
  8 13  1  0  0  0  0
  9 16  1  6  0  0  0
  9 14  1  0  0  0  0
 10  9  1  0  0  0  0
 10 12  1  0  0  0  0
 11  9  1  0  0  0  0
 11  8  1  0  0  0  0
 12 20  1  1  0  0  0
 12 13  1  0  0  0  0
 13 22  1  6  0  0  0
 14 15  1  0  0  0  0
 16 18  1  0  0  0  0
 17 16  2  0  0  0  0
 19 18  1  0  0  0  0
 21 20  1  0  0  0  0
 22 23  1  0  0  0  0
 23 25  1  0  0  0  0
 23 26  2  0  0  0  0
 24 22  1  0  0  0  0
 27 28  1  0  0  0  0
 29 30  1  0  0  0  0
 31 32  1  0  0  0  0
 32 33  1  0  0  0  0
 33 34  2  0  0  0  0
 34 36  1  0  0  0  0
 35 33  1  0  0  0  0
 35 37  2  0  0  0  0
 36 38  1  0  0  0  0
 37 36  1  0  0  0  0
 38 39  2  0  0  0  0
 38 40  1  0  0  0  0
 39 41  1  0  0  0  0
 40 42  2  0  0  0  0
 41 43  2  0  0  0  0
 42 43  1  0  0  0  0
 43 44  1  0  0  0  0
 44 47  1  0  0  0  0
 44 45  2  0  0  0  0
 46 44  2  0  0  0  0
 47 48  2  0  0  0  0
 48 50  1  0  0  0  0
 49 51  2  0  0  0  0
 49 47  1  0  0  0  0
 51 52  1  0  0  0  0
 52 53  1  0  0  0  0
 52 50  2  0  0  0  0
 53 54  1  0  0  0  0
 55 53  1  0  0  0  0
 56 57  1  0  0  0  0
 58 57  1  0  0  0  0
 58 59  1  0  0  0  0
 59 60  1  0  0  0  0
 60 61  1  0  0  0  0
M  END
>  <REMARK>
 VINA RESULT:    -5.149      6.002     13.471
 INTER + INTRA:         -16.191
 INTER:                 -10.345
 INTRA:                  -5.846
 UNBOUND:                -6.527
 SMILES CC(=O)N[C@@H]1[C@@H](O)C[C@](O)(C(=O)O)O[C@H]1C(O)[C@H](O)CNC(=O)OCc1cn(-c2ccc(S(=O)(=O)c3ccc(N)cc3)cc2)nn1
 SMILES IDX 21 1 22 2 23 3 20 5 18 6 16 7 15 8 9 9 8 10 14 11 6 12 5 13
 SMILES IDX 10 14 11 16 12 17 13 18 7 20 4 22 2 23 1 25 3 26 17 27 19 29
 SMILES IDX 24 31 25 32 26 33 27 34 46 35 28 36 45 37 29 38 30 39 44 40
 SMILES IDX 31 41 43 42 32 43 33 44 34 45 35 46 36 47 37 48 42 49 38 50
 SMILES IDX 41 51 39 52 40 53
 H PARENT 21 4 10 15 13 19 7 21 4 24 17 28 19 30 40 54 40 55
 Flexibility Score: inf
  4 active torsions:
  status: ('A' for Active; 'I' for Inactive)
    1  A    between atoms: CA   and  CB  
    2  A    between atoms: CB   and  CG  
    3  A    between atoms: CG   and  CD  
    4  A    between atoms: CD   and  CE  

>  <TORSDO>
F 18

>  <BEGIN_>
RES LYS A 131

$$$$
ligand_77_pose_12_2HRL.pdbqt
 OpenBabel07062320523D

  6  5  0  0  0  0  0  0  0  0999 V2000
   33.1930   34.6630    9.2900 C   0  0  0  0  0  0  0  0  0  0  0  0
   32.0600   35.3600   10.0340 C   0  0  0  0  0  0  0  0  0  0  0  0
   30.7070   34.7440    9.7860 C   0  0  0  0  0  0  0  0  0  0  0  0
   30.4590   34.5770    8.2950 C   0  0  0  0  0  0  0  0  0  0  0  0
   29.0140   34.8930    7.9570 C   0  0  0  0  0  0  0  0  0  0  0  0
   28.9050   35.5420    6.6210 N   0  0  0  0  0  0  0  0  0  0  0  0
  1  2  1  0  0  0  0
  3  2  1  0  0  0  0
  4  3  1  0  0  0  0
  5  4  1  0  0  0  0
  6  5  1  0  0  0  0
M  END
>  <EGIN_R>
ES LYS A 135

>  <REMARK>
  4 active torsions:
  status: ('A' for Active; 'I' for Inactive)
    5  A    between atoms: CA   and  CB  
    6  A    between atoms: CB   and  CG  
    7  A    between atoms: CG   and  CD  
    8  A    between atoms: CD   and  CE  

$$$$
