ligand_79_pose_9_2HRL.pdbqt
 OpenBabel07062320523D

 58 60  0  0  1  0  0  0  0  0999 V2000
   27.5050   31.3480   17.1820 N   0  0  0  0  0  0  0  0  0  0  0  0
   27.0610   32.6910   17.1740 C   0  0  0  0  0  0  0  0  0  0  0  0
   26.8230   33.2920   18.2240 O   0  0  0  0  0  0  0  0  0  0  0  0
   27.6900   30.9250   16.2110 H   0  0  0  0  0  0  0  0  0  0  0  0
   27.7200   30.5350   18.3480 C   0  0  0  0  0  0  0  0  0  0  0  0
   29.1340   30.3320   18.7480 C   0  0  2  0  0  0  0  0  0  0  0  0
   29.6220   31.3290   19.7870 C   0  0  1  0  0  0  0  0  0  0  0  0
   31.0130   30.9980   20.2650 C   0  0  2  0  0  0  0  0  0  0  0  0
   31.2600   28.9360   21.2930 C   0  0  2  0  0  0  0  0  0  0  0  0
   32.1970   29.4480   22.3650 C   0  0  0  0  0  0  0  0  0  0  0  0
   31.3490   29.6830   20.1250 O   0  0  0  0  0  0  0  0  0  0  0  0
   32.5660   30.8990   22.1330 C   0  0  1  0  0  0  0  0  0  0  0  0
   31.2840   31.5730   21.6390 C   0  0  1  0  0  0  0  0  0  0  0  0
   29.9390   28.8550   21.7310 O   0  0  0  0  0  0  0  0  0  0  0  0
   29.8350   29.2860   22.6270 H   0  0  0  0  0  0  0  0  0  0  0  0
   31.6920   27.5520   20.9610 C   0  0  0  0  0  0  0  0  0  0  0  0
   31.6940   26.6640   21.8720 O   0  0  0  0  0  0  0  0  0  0  0  0
   32.0990   27.1650   19.7060 O   0  0  0  0  0  0  0  0  0  0  0  0
   33.0620   27.2010   19.3970 H   0  0  0  0  0  0  0  0  0  0  0  0
   33.0510   31.5080   23.2670 O   0  0  0  0  0  0  0  0  0  0  0  0
   33.3890   32.4220   23.0050 H   0  0  0  0  0  0  0  0  0  0  0  0
   31.4390   32.9990   21.5480 N   0  0  0  0  0  0  0  0  0  0  0  0
   30.5530   33.9080   22.2270 C   0  0  0  0  0  0  0  0  0  0  0  0
   32.1960   33.4640   20.9880 H   0  0  0  0  0  0  0  0  0  0  0  0
   30.6750   35.3640   22.1610 C   0  0  0  0  0  0  0  0  0  0  0  0
   29.6250   33.3710   22.9140 O   0  0  0  0  0  0  0  0  0  0  0  0
   29.6320   32.5680   19.1400 O   0  0  0  0  0  0  0  0  0  0  0  0
   30.5250   32.8410   18.8540 H   0  0  0  0  0  0  0  0  0  0  0  0
   29.9770   30.4560   17.6600 O   0  0  0  0  0  0  0  0  0  0  0  0
   30.8750   30.7030   18.0020 H   0  0  0  0  0  0  0  0  0  0  0  0
   26.8720   33.4000   15.9850 O   0  0  0  0  0  0  0  0  0  0  0  0
   27.8860   33.4780   15.0270 C   0  0  0  0  0  0  0  0  0  0  0  0
   29.2110   33.6220   15.6840 C   0  0  0  0  0  0  0  0  0  0  0  0
   29.7580   34.8000   16.1700 C   0  0  0  0  0  0  0  0  0  0  0  0
   30.1410   32.6810   15.9480 N   0  0  0  0  0  0  0  0  0  0  0  0
   30.9710   34.5420   16.6980 N   0  0  0  0  0  0  0  0  0  0  0  0
   31.1740   33.2450   16.5470 N   0  0  0  0  0  0  0  0  0  0  0  0
   31.8760   35.5290   17.3180 C   0  0  0  0  0  0  0  0  0  0  0  0
   31.1120   36.7730   17.6180 C   0  0  0  0  0  0  0  0  0  0  0  0
   32.3240   34.8380   18.6190 C   0  0  0  0  0  0  0  0  0  0  0  0
   33.0370   35.6660   16.4420 C   0  0  0  0  0  0  0  0  0  0  0  0
   34.2080   35.8590   16.9260 O   0  0  0  0  0  0  0  0  0  0  0  0
   33.0010   35.6080   14.9850 C   0  0  0  0  0  0  0  0  0  0  0  0
   33.6240   34.6300   14.2110 C   0  0  0  0  0  0  0  0  0  0  0  0
   32.3780   36.5150   14.1690 C   0  0  0  0  0  0  0  0  0  0  0  0
   33.3780   34.9470   12.9420 N   0  0  0  0  0  0  0  0  0  0  0  0
   32.6330   36.0710   12.8670 C   0  0  0  0  0  0  0  0  0  0  0  0
   31.6160   37.6620   14.3730 C   0  0  0  0  0  0  0  0  0  0  0  0
   33.7020   34.4180   12.1190 H   0  0  0  0  0  0  0  0  0  0  0  0
   32.1130   36.8000   11.8170 C   0  0  0  0  0  0  0  0  0  0  0  0
   31.1180   38.3580   13.3110 C   0  0  0  0  0  0  0  0  0  0  0  0
   31.3640   37.9310   12.0400 C   0  0  0  0  0  0  0  0  0  0  0  0
   29.8670   25.5550   16.9770 C   0  0  0  0  0  0  0  0  0  0  0  0
   28.3450   25.7220   17.0260 C   0  0  0  0  0  0  0  0  0  0  0  0
   27.6010   24.4020   16.8890 C   0  0  0  0  0  0  0  0  0  0  0  0
   26.1470   24.5320   17.2470 C   0  0  0  0  0  0  0  0  0  0  0  0
   25.5740   23.1530   17.5590 C   0  0  0  0  0  0  0  0  0  0  0  0
   24.1590   23.0690   17.1270 N   0  0  0  0  0  0  0  0  0  0  0  0
  1  5  1  0  0  0  0
  2  1  1  0  0  0  0
  2  3  2  0  0  0  0
  4  1  1  0  0  0  0
  6  5  1  6  0  0  0
  6  7  1  0  0  0  0
  7 27  1  6  0  0  0
  8  7  1  1  0  0  0
  8 13  1  0  0  0  0
  9 16  1  6  0  0  0
  9 14  1  0  0  0  0
  9 10  1  0  0  0  0
 11  8  1  0  0  0  0
 11  9  1  0  0  0  0
 12 10  1  0  0  0  0
 12 20  1  1  0  0  0
 13 22  1  6  0  0  0
 13 12  1  0  0  0  0
 14 15  1  0  0  0  0
 16 17  2  0  0  0  0
 18 16  1  0  0  0  0
 19 18  1  0  0  0  0
 21 20  1  0  0  0  0
 22 23  1  0  0  0  0
 23 26  2  0  0  0  0
 24 22  1  0  0  0  0
 25 23  1  0  0  0  0
 28 27  1  0  0  0  0
 29 30  1  0  0  0  0
 29  6  1  0  0  0  0
 31  2  1  0  0  0  0
 32 33  1  0  0  0  0
 32 31  1  0  0  0  0
 33 35  1  0  0  0  0
 33 34  2  0  0  0  0
 34 36  1  0  0  0  0
 35 37  2  0  0  0  0
 36 38  1  0  0  0  0
 37 36  1  0  0  0  0
 38 39  1  0  0  0  0
 38 40  1  0  0  0  0
 41 42  2  0  0  0  0
 41 38  1  0  0  0  0
 43 41  1  0  0  0  0
 44 43  2  0  0  0  0
 45 48  1  0  0  0  0
 45 43  1  0  0  0  0
 46 44  1  0  0  0  0
 47 46  1  0  0  0  0
 47 45  2  0  0  0  0
 49 46  1  0  0  0  0
 50 52  2  0  0  0  0
 50 47  1  0  0  0  0
 51 48  2  0  0  0  0
 52 51  1  0  0  0  0
 53 54  1  0  0  0  0
 55 54  1  0  0  0  0
 55 56  1  0  0  0  0
 56 57  1  0  0  0  0
 58 57  1  0  0  0  0
M  END
>  <REMARK>
 VINA RESULT:    -6.063      4.531     10.203
 INTER + INTRA:         -15.980
 INTER:                  -9.117
 INTRA:                  -6.863
 UNBOUND:                -4.777
 SMILES CC(=O)N[C@@H]1[C@@H](O)C[C@](O)(C(=O)O)O[C@H]1C(O)[C@H](O)CNC(=O)OCc1cn(C(C)(C)C(=O)c2c[nH]c3ccccc23)nn1
 SMILES IDX 21 1 22 2 23 3 20 5 18 6 16 7 15 8 9 9 8 10 14 11 6 12 5 13
 SMILES IDX 10 14 11 16 12 17 13 18 7 20 4 22 2 23 1 25 3 26 17 27 19 29
 SMILES IDX 24 31 25 32 26 33 27 34 44 35 28 36 43 37 29 38 30 39 31 40
 SMILES IDX 32 41 33 42 34 43 35 44 42 45 36 46 37 47 41 48 38 50 40 51
 SMILES IDX 39 52
 H PARENT 21 4 10 15 13 19 7 21 4 24 17 28 19 30 36 49
 Flexibility Score: inf
  4 active torsions:
  status: ('A' for Active; 'I' for Inactive)
    1  A    between atoms: CA   and  CB  
    2  A    between atoms: CB   and  CG  
    3  A    between atoms: CG   and  CD  
    4  A    between atoms: CD   and  CE  

>  <TORSDO>
F 17

>  <BEGIN_>
RES LYS A 131

$$$$
ligand_79_pose_9_2HRL.pdbqt
 OpenBabel07062320523D

  6  5  0  0  0  0  0  0  0  0999 V2000
   33.1930   34.6630    9.2900 C   0  0  0  0  0  0  0  0  0  0  0  0
   32.0600   35.3600   10.0340 C   0  0  0  0  0  0  0  0  0  0  0  0
   30.7180   34.7010    9.8430 C   0  0  0  0  0  0  0  0  0  0  0  0
   30.1150   35.0900    8.5030 C   0  0  0  0  0  0  0  0  0  0  0  0
   29.8530   36.5830    8.4500 C   0  0  0  0  0  0  0  0  0  0  0  0
   28.6490   36.9450    9.2490 N   0  0  0  0  0  0  0  0  0  0  0  0
  1  2  1  0  0  0  0
  3  2  1  0  0  0  0
  4  3  1  0  0  0  0
  5  4  1  0  0  0  0
  5  6  1  0  0  0  0
M  END
>  <EGIN_R>
ES LYS A 135

>  <REMARK>
  4 active torsions:
  status: ('A' for Active; 'I' for Inactive)
    5  A    between atoms: CA   and  CB  
    6  A    between atoms: CB   and  CG  
    7  A    between atoms: CG   and  CD  
    8  A    between atoms: CD   and  CE  

$$$$
