ligand_14_pose_4_2HRL.pdbqt
 OpenBabel07062320523D

 50 51  0  0  1  0  0  0  0  0999 V2000
   29.2440   30.2560   17.1760 N   0  0  0  0  0  0  0  0  0  0  0  0
   28.5440   30.0580   18.3800 C   0  0  0  0  0  0  0  0  0  0  0  0
   28.6840   30.8440   19.3270 O   0  0  0  0  0  0  0  0  0  0  0  0
   29.0530   29.5070   16.4280 H   0  0  0  0  0  0  0  0  0  0  0  0
   30.1480   31.3200   16.8730 C   0  0  0  0  0  0  0  0  0  0  0  0
   29.4610   32.4060   16.0960 C   0  0  2  0  0  0  0  0  0  0  0  0
   30.2530   32.7840   14.8490 C   0  0  1  0  0  0  0  0  0  0  0  0
   30.4100   34.3150   14.8830 C   0  0  2  0  0  0  0  0  0  0  0  0
   29.7300   35.4040   12.9200 C   0  0  2  0  0  0  0  0  0  0  0  0
   31.0590   34.9540   12.3470 C   0  0  0  0  0  0  0  0  0  0  0  0
   29.4400   34.9080   14.1530 O   0  0  0  0  0  0  0  0  0  0  0  0
   32.1610   35.2330   13.3090 C   0  0  1  0  0  0  0  0  0  0  0  0
   31.8180   34.7370   14.6770 C   0  0  1  0  0  0  0  0  0  0  0  0
   28.7630   34.8560   12.0410 O   0  0  0  0  0  0  0  0  0  0  0  0
   28.0180   35.5240   11.9470 H   0  0  0  0  0  0  0  0  0  0  0  0
   29.5820   36.8760   12.8460 C   0  0  0  0  0  0  0  0  0  0  0  0
   29.2140   37.4070   11.7750 O   0  0  0  0  0  0  0  0  0  0  0  0
   29.8420   37.6740   13.9430 O   0  0  0  0  0  0  0  0  0  0  0  0
   29.0750   38.1600   14.3860 H   0  0  0  0  0  0  0  0  0  0  0  0
   33.3170   34.6260   12.8300 O   0  0  0  0  0  0  0  0  0  0  0  0
   33.4920   33.7800   13.3240 H   0  0  0  0  0  0  0  0  0  0  0  0
   32.2540   35.6670   15.7170 N   0  0  0  0  0  0  0  0  0  0  0  0
   32.4160   35.2870   17.0540 C   0  0  0  0  0  0  0  0  0  0  0  0
   32.4420   36.6420   15.4170 H   0  0  0  0  0  0  0  0  0  0  0  0
   32.8640   36.3000   18.0440 C   0  0  0  0  0  0  0  0  0  0  0  0
   32.1820   34.0880   17.4160 O   0  0  0  0  0  0  0  0  0  0  0  0
   31.5000   32.1750   14.9440 O   0  0  0  0  0  0  0  0  0  0  0  0
   32.2510   32.7930   14.9440 H   0  0  0  0  0  0  0  0  0  0  0  0
   29.1220   33.5180   16.8330 O   0  0  0  0  0  0  0  0  0  0  0  0
   28.4530   34.1090   16.4140 H   0  0  0  0  0  0  0  0  0  0  0  0
   27.6700   28.9850   18.5720 O   0  0  0  0  0  0  0  0  0  0  0  0
   26.9600   28.4320   17.4820 C   0  0  0  0  0  0  0  0  0  0  0  0
   25.7500   29.2200   17.1370 C   0  0  0  0  0  0  0  0  0  0  0  0
   25.6130   30.1420   16.0970 C   0  0  0  0  0  0  0  0  0  0  0  0
   24.5470   29.2220   17.7390 N   0  0  0  0  0  0  0  0  0  0  0  0
   24.3720   30.6590   16.0970 N   0  0  0  0  0  0  0  0  0  0  0  0
   23.7510   30.0630   17.1260 N   0  0  0  0  0  0  0  0  0  0  0  0
   23.7930   31.6440   15.2080 C   0  0  0  0  0  0  0  0  0  0  0  0
   24.3850   31.6150   13.8390 C   0  0  0  0  0  0  0  0  0  0  0  0
   23.5290   31.0500   12.8270 N   0  0  0  0  0  0  0  0  0  0  0  0
   23.8030   29.6250   12.7520 C   0  0  0  0  0  0  0  0  0  0  0  0
   22.1250   31.1630   13.1720 C   0  0  0  0  0  0  0  0  0  0  0  0
   22.4940   28.9100   12.6570 C   0  0  0  0  0  0  0  0  0  0  0  0
   21.5210   30.0330   12.3630 C   0  0  0  0  0  0  0  0  0  0  0  0
   29.8670   25.5550   16.9770 C   0  0  0  0  0  0  0  0  0  0  0  0
   28.3450   25.7220   17.0260 C   0  0  0  0  0  0  0  0  0  0  0  0
   27.5990   24.4590   16.6240 C   0  0  0  0  0  0  0  0  0  0  0  0
   26.9970   23.7550   17.8080 C   0  0  0  0  0  0  0  0  0  0  0  0
   26.2060   24.7540   18.6460 C   0  0  0  0  0  0  0  0  0  0  0  0
   25.3890   24.0480   19.6610 N   0  0  0  0  0  0  0  0  0  0  0  0
  1  2  1  0  0  0  0
  2 31  1  0  0  0  0
  2  3  2  0  0  0  0
  4  1  1  0  0  0  0
  5  1  1  0  0  0  0
  6 29  1  0  0  0  0
  6  5  1  1  0  0  0
  7 27  1  1  0  0  0
  7  6  1  0  0  0  0
  8  7  1  6  0  0  0
  9 14  1  6  0  0  0
  9 11  1  0  0  0  0
 10  9  1  0  0  0  0
 10 12  1  0  0  0  0
 11  8  1  0  0  0  0
 12 20  1  6  0  0  0
 12 13  1  0  0  0  0
 13  8  1  0  0  0  0
 13 22  1  1  0  0  0
 15 14  1  0  0  0  0
 16  9  1  0  0  0  0
 16 18  1  0  0  0  0
 17 16  2  0  0  0  0
 18 19  1  0  0  0  0
 20 21  1  0  0  0  0
 22 23  1  0  0  0  0
 23 26  2  0  0  0  0
 23 25  1  0  0  0  0
 24 22  1  0  0  0  0
 28 27  1  0  0  0  0
 30 29  1  0  0  0  0
 32 31  1  0  0  0  0
 33 32  1  0  0  0  0
 33 35  1  0  0  0  0
 34 36  1  0  0  0  0
 34 33  2  0  0  0  0
 36 37  1  0  0  0  0
 37 35  2  0  0  0  0
 38 36  1  0  0  0  0
 39 38  1  0  0  0  0
 40 42  1  0  0  0  0
 40 39  1  0  0  0  0
 41 40  1  0  0  0  0
 43 41  1  0  0  0  0
 44 43  1  0  0  0  0
 44 42  1  0  0  0  0
 45 46  1  0  0  0  0
 47 46  1  0  0  0  0
 47 48  1  0  0  0  0
 48 49  1  0  0  0  0
 49 50  1  0  0  0  0
M  END
>  <REMARK>
 VINA RESULT:    -4.559      4.954      8.604
 INTER + INTRA:         -14.417
 INTER:                  -9.163
 INTRA:                  -5.254
 UNBOUND:                -5.994
 SMILES CC(=O)N[C@@H]1[C@@H](O)C[C@](O)(C(=O)O)O[C@H]1C(O)[C@H](O)CNC(=O)OCc1cn(CCN2CCCC2)nn1
 SMILES IDX 21 1 22 2 23 3 20 5 18 6 16 7 15 8 9 9 8 10 14 11 6 12 5 13
 SMILES IDX 10 14 11 16 12 17 13 18 7 20 4 22 2 23 1 25 3 26 17 27 19 29
 SMILES IDX 24 31 25 32 26 33 27 34 37 35 28 36 36 37 29 38 30 39 31 40
 SMILES IDX 32 41 35 42 33 43 34 44
 H PARENT 21 4 10 15 13 19 7 21 4 24 17 28 19 30
 Flexibility Score: inf
  4 active torsions:
  status: ('A' for Active; 'I' for Inactive)
    1  A    between atoms: CA   and  CB  
    2  A    between atoms: CB   and  CG  
    3  A    between atoms: CG   and  CD  
    4  A    between atoms: CD   and  CE  

>  <TORSDO>
F 17

>  <BEGIN_>
RES LYS A 131

$$$$
ligand_14_pose_4_2HRL.pdbqt
 OpenBabel07062320523D

  6  5  0  0  0  0  0  0  0  0999 V2000
   33.1930   34.6630    9.2900 C   0  0  0  0  0  0  0  0  0  0  0  0
   32.0600   35.3600   10.0340 C   0  0  0  0  0  0  0  0  0  0  0  0
   30.8850   35.7050    9.1560 C   0  0  0  0  0  0  0  0  0  0  0  0
   30.4060   34.4780    8.3950 C   0  0  0  0  0  0  0  0  0  0  0  0
   28.9550   34.1810    8.7230 C   0  0  0  0  0  0  0  0  0  0  0  0
   28.0360   34.9650    7.8510 N   0  0  0  0  0  0  0  0  0  0  0  0
  1  2  1  0  0  0  0
  3  2  1  0  0  0  0
  4  5  1  0  0  0  0
  4  3  1  0  0  0  0
  6  5  1  0  0  0  0
M  END
>  <EGIN_R>
ES LYS A 135

>  <REMARK>
  4 active torsions:
  status: ('A' for Active; 'I' for Inactive)
    5  A    between atoms: CA   and  CB  
    6  A    between atoms: CB   and  CG  
    7  A    between atoms: CG   and  CD  
    8  A    between atoms: CD   and  CE  

$$$$
