ligand_59_pose_19_2HRL.pdbqt
 OpenBabel07062320523D

 52 53  0  0  1  0  0  0  0  0999 V2000
   22.5130   39.1830    7.5140 N   0  0  0  0  0  0  0  0  0  0  0  0
   22.0140   38.5630    8.7070 C   0  0  0  0  0  0  0  0  0  0  0  0
   22.2430   39.1630    9.7820 O   0  0  0  0  0  0  0  0  0  0  0  0
   22.2890   38.6570    6.6420 H   0  0  0  0  0  0  0  0  0  0  0  0
   23.2260   40.4300    7.5670 C   0  0  0  0  0  0  0  0  0  0  0  0
   24.5460   40.2940    6.8240 C   0  0  2  0  0  0  0  0  0  0  0  0
   25.5940   40.0730    7.8770 C   0  0  2  0  0  0  0  0  0  0  0  0
   26.9610   39.6700    7.4070 C   0  0  2  0  0  0  0  0  0  0  0  0
   27.8490   39.1230    5.2910 C   0  0  2  0  0  0  0  0  0  0  0  0
   28.6720   37.9890    5.8500 C   0  0  0  0  0  0  0  0  0  0  0  0
   26.7880   39.4330    6.0690 O   0  0  0  0  0  0  0  0  0  0  0  0
   27.8350   37.4200    6.9790 C   0  0  1  0  0  0  0  0  0  0  0  0
   27.6050   38.5160    8.0480 C   0  0  1  0  0  0  0  0  0  0  0  0
   27.3760   38.6500    4.0260 O   0  0  0  0  0  0  0  0  0  0  0  0
   27.0910   37.7050    4.1210 H   0  0  0  0  0  0  0  0  0  0  0  0
   28.6380   40.3350    4.9880 C   0  0  0  0  0  0  0  0  0  0  0  0
   29.8450   40.3750    5.2960 O   0  0  0  0  0  0  0  0  0  0  0  0
   28.0620   41.4250    4.3650 O   0  0  0  0  0  0  0  0  0  0  0  0
   27.7290   41.3270    3.4140 H   0  0  0  0  0  0  0  0  0  0  0  0
   26.6510   36.8770    6.5440 O   0  0  0  0  0  0  0  0  0  0  0  0
   26.0660   36.6820    7.3310 H   0  0  0  0  0  0  0  0  0  0  0  0
   28.9010   38.7400    8.6020 N   0  0  0  0  0  0  0  0  0  0  0  0
   29.3190   38.1450    9.8040 C   0  0  0  0  0  0  0  0  0  0  0  0
   29.5550   39.3680    8.1030 H   0  0  0  0  0  0  0  0  0  0  0  0
   30.6650   38.3770   10.3780 C   0  0  0  0  0  0  0  0  0  0  0  0
   28.5340   37.3920   10.4140 O   0  0  0  0  0  0  0  0  0  0  0  0
   25.1530   39.0210    8.7010 O   0  0  0  0  0  0  0  0  0  0  0  0
   24.1600   38.9480    8.7010 H   0  0  0  0  0  0  0  0  0  0  0  0
   24.7210   41.5820    6.2490 O   0  0  0  0  0  0  0  0  0  0  0  0
   24.3400   41.5750    5.3560 H   0  0  0  0  0  0  0  0  0  0  0  0
   21.3220   37.3830    8.7070 O   0  0  0  0  0  0  0  0  0  0  0  0
   21.8890   36.1340    8.4490 C   0  0  0  0  0  0  0  0  0  0  0  0
   23.2330   35.9520    9.0520 C   0  0  0  0  0  0  0  0  0  0  0  0
   23.4520   35.4290   10.3290 C   0  0  0  0  0  0  0  0  0  0  0  0
   24.4480   36.2120    8.5860 N   0  0  0  0  0  0  0  0  0  0  0  0
   24.7640   35.4030   10.5670 N   0  0  0  0  0  0  0  0  0  0  0  0
   25.3600   35.8810    9.5010 N   0  0  0  0  0  0  0  0  0  0  0  0
   25.3960   34.9430   11.7700 C   0  0  0  0  0  0  0  0  0  0  0  0
   24.8290   34.0020   12.6030 C   0  0  0  0  0  0  0  0  0  0  0  0
   26.5880   35.4450   12.1310 N   0  0  0  0  0  0  0  0  0  0  0  0
   25.4210   33.5670   13.7600 C   0  0  0  0  0  0  0  0  0  0  0  0
   27.2070   35.0500   13.2540 C   0  0  0  0  0  0  0  0  0  0  0  0
   26.6470   34.1020   14.1040 C   0  0  0  0  0  0  0  0  0  0  0  0
   27.3800   33.6990   15.3390 C   0  0  0  0  0  0  0  0  0  0  0  0
   28.7280   33.5560   15.0370 O   0  0  0  0  0  0  0  0  0  0  0  0
   28.8400   32.9110   14.2920 H   0  0  0  0  0  0  0  0  0  0  0  0
   29.8670   25.5550   16.9770 C   0  0  0  0  0  0  0  0  0  0  0  0
   28.3450   25.7220   17.0260 C   0  0  0  0  0  0  0  0  0  0  0  0
   27.6020   24.4000   16.9170 C   0  0  0  0  0  0  0  0  0  0  0  0
   26.5310   24.2630   17.9630 C   0  0  0  0  0  0  0  0  0  0  0  0
   25.2800   23.6570   17.3360 C   0  0  0  0  0  0  0  0  0  0  0  0
   24.3390   24.7240   16.9200 N   0  0  0  0  0  0  0  0  0  0  0  0
  1  5  1  0  0  0  0
  1  2  1  0  0  0  0
  2  3  2  0  0  0  0
  4  1  1  0  0  0  0
  6  5  1  1  0  0  0
  6  7  1  0  0  0  0
  7 27  1  1  0  0  0
  8  7  1  1  0  0  0
  8 13  1  0  0  0  0
  9 14  1  6  0  0  0
  9 10  1  0  0  0  0
  9 11  1  0  0  0  0
 10 12  1  0  0  0  0
 11  8  1  0  0  0  0
 12 20  1  6  0  0  0
 12 13  1  0  0  0  0
 13 22  1  6  0  0  0
 14 15  1  0  0  0  0
 16  9  1  0  0  0  0
 16 17  2  0  0  0  0
 18 16  1  0  0  0  0
 19 18  1  0  0  0  0
 20 21  1  0  0  0  0
 22 23  1  0  0  0  0
 23 25  1  0  0  0  0
 23 26  2  0  0  0  0
 24 22  1  0  0  0  0
 27 28  1  0  0  0  0
 29  6  1  0  0  0  0
 30 29  1  0  0  0  0
 31  2  1  0  0  0  0
 32 31  1  0  0  0  0
 32 33  1  0  0  0  0
 33 34  2  0  0  0  0
 34 36  1  0  0  0  0
 35 33  1  0  0  0  0
 35 37  2  0  0  0  0
 36 38  1  0  0  0  0
 37 36  1  0  0  0  0
 38 40  2  0  0  0  0
 38 39  1  0  0  0  0
 39 41  2  0  0  0  0
 40 42  1  0  0  0  0
 41 43  1  0  0  0  0
 42 43  2  0  0  0  0
 43 44  1  0  0  0  0
 45 44  1  0  0  0  0
 46 45  1  0  0  0  0
 47 48  1  0  0  0  0
 49 48  1  0  0  0  0
 49 50  1  0  0  0  0
 51 50  1  0  0  0  0
 52 51  1  0  0  0  0
M  END
>  <REMARK>
 VINA RESULT:    -4.717      6.403     13.000
 INTER + INTRA:         -14.313
 INTER:                  -7.783
 INTRA:                  -6.530
 UNBOUND:                -5.735
 SMILES CC(=O)N[C@@H]1[C@@H](O)C[C@](O)(C(=O)O)O[C@H]1C(O)[C@H](O)CNC(=O)OCc1cn(-c2ccc(CO)cn2)nn1
 SMILES IDX 21 1 22 2 23 3 20 5 18 6 16 7 15 8 9 9 8 10 14 11 6 12 5 13
 SMILES IDX 10 14 11 16 12 17 13 18 7 20 4 22 2 23 1 25 3 26 17 27 19 29
 SMILES IDX 24 31 25 32 26 33 27 34 38 35 28 36 37 37 29 38 30 39 36 40
 SMILES IDX 31 41 35 42 32 43 33 44 34 45
 H PARENT 21 4 10 15 13 19 7 21 4 24 17 28 19 30 34 46
 Flexibility Score: inf
  4 active torsions:
  status: ('A' for Active; 'I' for Inactive)
    1  A    between atoms: CA   and  CB  
    2  A    between atoms: CB   and  CG  
    3  A    between atoms: CG   and  CD  
    4  A    between atoms: CD   and  CE  

>  <TORSDO>
F 17

>  <BEGIN_>
RES LYS A 131

$$$$
ligand_59_pose_19_2HRL.pdbqt
 OpenBabel07062320523D

  6  5  0  0  0  0  0  0  0  0999 V2000
   33.1930   34.6630    9.2900 C   0  0  0  0  0  0  0  0  0  0  0  0
   32.0600   35.3600   10.0340 C   0  0  0  0  0  0  0  0  0  0  0  0
   30.7380   34.6440    9.9270 C   0  0  0  0  0  0  0  0  0  0  0  0
   30.2860   34.5670    8.4770 C   0  0  0  0  0  0  0  0  0  0  0  0
   28.7780   34.4230    8.3970 C   0  0  0  0  0  0  0  0  0  0  0  0
   28.2380   33.7520    9.6110 N   0  0  0  0  0  0  0  0  0  0  0  0
  1  2  1  0  0  0  0
  3  2  1  0  0  0  0
  4  3  1  0  0  0  0
  5  4  1  0  0  0  0
  5  6  1  0  0  0  0
M  END
>  <EGIN_R>
ES LYS A 135

>  <REMARK>
  4 active torsions:
  status: ('A' for Active; 'I' for Inactive)
    5  A    between atoms: CA   and  CB  
    6  A    between atoms: CB   and  CG  
    7  A    between atoms: CG   and  CD  
    8  A    between atoms: CD   and  CE  

$$$$
