ligand_26_pose_7_2HRL.pdbqt
 OpenBabel07062320523D

 54 55  0  0  1  0  0  0  0  0999 V2000
   24.9370   34.8600   15.5280 N   0  0  0  0  0  0  0  0  0  0  0  0
   24.1250   33.6980   15.6620 C   0  0  0  0  0  0  0  0  0  0  0  0
   24.4860   32.8040   16.4490 O   0  0  0  0  0  0  0  0  0  0  0  0
   24.5590   35.5790   14.8380 H   0  0  0  0  0  0  0  0  0  0  0  0
   26.1730   35.0810   16.2460 C   0  0  0  0  0  0  0  0  0  0  0  0
   27.3570   35.1940   15.3120 C   0  0  2  0  0  0  0  0  0  0  0  0
   28.2340   33.9610   15.3610 C   0  0  1  0  0  0  0  0  0  0  0  0
   29.4140   34.1150   16.2730 C   0  0  2  0  0  0  0  0  0  0  0  0
   31.2990   33.9230   14.9090 C   0  0  2  0  0  0  0  0  0  0  0  0
   31.6710   32.5870   15.5020 C   0  0  0  0  0  0  0  0  0  0  0  0
   30.4980   34.7080   15.6830 O   0  0  0  0  0  0  0  0  0  0  0  0
   30.4960   31.8520   16.0750 C   0  0  1  0  0  0  0  0  0  0  0  0
   29.7630   32.8170   16.9790 C   0  0  1  0  0  0  0  0  0  0  0  0
   30.8120   33.7310   13.5970 O   0  0  0  0  0  0  0  0  0  0  0  0
   30.4100   32.8490   13.4770 H   0  0  0  0  0  0  0  0  0  0  0  0
   32.6020   34.6660   14.7430 C   0  0  0  0  0  0  0  0  0  0  0  0
   32.8150   35.7900   15.2180 O   0  0  0  0  0  0  0  0  0  0  0  0
   33.5770   33.9820   13.9990 O   0  0  0  0  0  0  0  0  0  0  0  0
   34.5570   34.1780   14.1270 H   0  0  0  0  0  0  0  0  0  0  0  0
   29.6840   31.2960   15.1150 O   0  0  0  0  0  0  0  0  0  0  0  0
   30.1900   31.1710   14.2770 H   0  0  0  0  0  0  0  0  0  0  0  0
   30.7310   33.1850   18.0260 N   0  0  0  0  0  0  0  0  0  0  0  0
   30.5860   32.6280   19.3260 C   0  0  0  0  0  0  0  0  0  0  0  0
   31.5180   33.8370   17.8460 H   0  0  0  0  0  0  0  0  0  0  0  0
   31.5730   33.0080   20.3700 C   0  0  0  0  0  0  0  0  0  0  0  0
   29.6390   31.8410   19.5440 O   0  0  0  0  0  0  0  0  0  0  0  0
   27.4160   32.9030   15.7640 O   0  0  0  0  0  0  0  0  0  0  0  0
   26.5570   32.9440   15.2470 H   0  0  0  0  0  0  0  0  0  0  0  0
   28.1060   36.3350   15.6660 O   0  0  0  0  0  0  0  0  0  0  0  0
   29.0530   36.2520   15.3930 H   0  0  0  0  0  0  0  0  0  0  0  0
   22.9540   33.5230   14.9600 O   0  0  0  0  0  0  0  0  0  0  0  0
   22.8570   33.1820   13.5950 C   0  0  0  0  0  0  0  0  0  0  0  0
   23.8800   33.7880   12.7390 C   0  0  0  0  0  0  0  0  0  0  0  0
   23.6490   34.7290   11.7270 C   0  0  0  0  0  0  0  0  0  0  0  0
   25.2230   33.5890   12.7310 N   0  0  0  0  0  0  0  0  0  0  0  0
   24.8070   35.0430   11.1800 N   0  0  0  0  0  0  0  0  0  0  0  0
   25.7320   34.3570   11.7870 N   0  0  0  0  0  0  0  0  0  0  0  0
   24.9930   36.0190   10.0610 C   0  0  1  0  0  0  0  0  0  0  0  0
   26.0540   36.9610   10.5670 C   0  0  0  0  0  0  0  0  0  0  0  0
   25.4130   35.2490    8.8980 C   0  0  0  0  0  0  0  0  0  0  0  0
   26.6240   35.5680    8.2090 C   0  0  2  0  0  0  0  0  0  0  0  0
   26.4370   36.4810    7.2510 O   0  0  0  0  0  0  0  0  0  0  0  0
   27.9790   35.1270    8.3140 C   0  0  0  0  0  0  0  0  0  0  0  0
   28.3480   34.3390    9.4320 C   0  0  0  0  0  0  0  0  0  0  0  0
   28.9760   35.3840    7.4050 C   0  0  0  0  0  0  0  0  0  0  0  0
   29.6280   33.8690    9.5870 C   0  0  0  0  0  0  0  0  0  0  0  0
   30.2600   34.8920    7.5940 C   0  0  0  0  0  0  0  0  0  0  0  0
   30.6100   34.1390    8.6660 C   0  0  0  0  0  0  0  0  0  0  0  0
   29.8670   25.5550   16.9770 C   0  0  0  0  0  0  0  0  0  0  0  0
   28.3450   25.7220   17.0260 C   0  0  0  0  0  0  0  0  0  0  0  0
   27.6010   24.4040   16.8730 C   0  0  0  0  0  0  0  0  0  0  0  0
   26.6180   24.1760   17.9880 C   0  0  0  0  0  0  0  0  0  0  0  0
   25.3440   24.9680   17.7130 C   0  0  0  0  0  0  0  0  0  0  0  0
   24.4580   24.2220   16.7890 N   0  0  0  0  0  0  0  0  0  0  0  0
  1  2  1  0  0  0  0
  1  5  1  0  0  0  0
  2  3  2  0  0  0  0
  4  1  1  0  0  0  0
  6  7  1  0  0  0  0
  6 29  1  0  0  0  0
  6  5  1  1  0  0  0
  7 27  1  1  0  0  0
  8  7  1  6  0  0  0
  8 13  1  0  0  0  0
  9 14  1  6  0  0  0
  9 10  1  0  0  0  0
  9 11  1  0  0  0  0
 10 12  1  0  0  0  0
 11  8  1  0  0  0  0
 12 20  1  6  0  0  0
 12 13  1  0  0  0  0
 13 22  1  1  0  0  0
 15 14  1  0  0  0  0
 16  9  1  0  0  0  0
 16 17  2  0  0  0  0
 18 19  1  0  0  0  0
 18 16  1  0  0  0  0
 21 20  1  0  0  0  0
 22 23  1  0  0  0  0
 23 26  2  0  0  0  0
 23 25  1  0  0  0  0
 24 22  1  0  0  0  0
 28 27  1  0  0  0  0
 30 29  1  0  0  0  0
 31  2  1  0  0  0  0
 32 31  1  0  0  0  0
 33 32  1  0  0  0  0
 34 33  2  0  0  0  0
 35 33  1  0  0  0  0
 36 34  1  0  0  0  0
 36 37  1  0  0  0  0
 37 35  2  0  0  0  0
 38 39  1  1  0  0  0
 38 36  1  0  0  0  0
 40 38  1  0  0  0  0
 41 42  1  6  0  0  0
 41 43  1  0  0  0  0
 41 40  1  0  0  0  0
 43 44  2  0  0  0  0
 44 46  1  0  0  0  0
 45 47  2  0  0  0  0
 45 43  1  0  0  0  0
 47 48  1  0  0  0  0
 48 46  2  0  0  0  0
 49 50  1  0  0  0  0
 51 50  1  0  0  0  0
 51 52  1  0  0  0  0
 53 52  1  0  0  0  0
 54 53  1  0  0  0  0
M  END
>  <REMARK>
 VINA RESULT:    -4.767      3.837      7.375
 INTER + INTRA:         -16.021
 INTER:                 -11.622
 INTRA:                  -4.399
 UNBOUND:                -6.934
 SMILES CC(=O)N[C@@H]1[C@@H](O)C[C@](O)(C(=O)O)O[C@H]1C(O)[C@H](O)CNC(=O)OCc1cn(C(C)CC(=O)c2ccccc2)nn1
 SMILES IDX 21 1 22 2 23 3 20 5 18 6 16 7 15 8 9 9 8 10 14 11 6 12 5 13
 SMILES IDX 10 14 11 16 12 17 13 18 7 20 4 22 2 23 1 25 3 26 17 27 19 29
 SMILES IDX 24 31 25 32 26 33 27 34 41 35 28 36 40 37 29 38 30 39 31 40
 SMILES IDX 32 41 33 42 34 43 35 44 39 45 36 46 38 47 37 48
 H PARENT 21 4 10 15 13 19 7 21 4 24 17 28 19 30
 Flexibility Score: inf
  4 active torsions:
  status: ('A' for Active; 'I' for Inactive)
    1  A    between atoms: CA   and  CB  
    2  A    between atoms: CB   and  CG  
    3  A    between atoms: CG   and  CD  
    4  A    between atoms: CD   and  CE  

>  <TORSDO>
F 18

>  <BEGIN_>
RES LYS A 131

$$$$
ligand_26_pose_7_2HRL.pdbqt
 OpenBabel07062320523D

  6  5  0  0  0  0  0  0  0  0999 V2000
   33.1930   34.6630    9.2900 C   0  0  0  0  0  0  0  0  0  0  0  0
   32.0600   35.3600   10.0340 C   0  0  0  0  0  0  0  0  0  0  0  0
   32.4970   36.0180   11.3170 C   0  0  0  0  0  0  0  0  0  0  0  0
   31.8750   37.3990   11.4510 C   0  0  0  0  0  0  0  0  0  0  0  0
   31.0260   37.4820   12.7050 C   0  0  0  0  0  0  0  0  0  0  0  0
   29.7610   36.7130   12.5480 N   0  0  0  0  0  0  0  0  0  0  0  0
  1  2  1  0  0  0  0
  2  3  1  0  0  0  0
  3  4  1  0  0  0  0
  4  5  1  0  0  0  0
  6  5  1  0  0  0  0
M  END
>  <EGIN_R>
ES LYS A 135

>  <REMARK>
  4 active torsions:
  status: ('A' for Active; 'I' for Inactive)
    5  A    between atoms: CA   and  CB  
    6  A    between atoms: CB   and  CG  
    7  A    between atoms: CG   and  CD  
    8  A    between atoms: CD   and  CE  

$$$$
