ligand_74_pose_12_2HRL.pdbqt
 OpenBabel07062320523D

 54 54  0  0  1  0  0  0  0  0999 V2000
   24.3630   39.3580    8.8630 O   0  0  0  0  0  0  0  0  0  0  0  0
   24.7580   39.8830    7.6200 C   0  0  0  0  0  0  0  0  0  0  0  0
   26.1230   40.0960    7.3110 N   0  0  0  0  0  0  0  0  0  0  0  0
   26.8220   39.8310    8.0750 H   0  0  0  0  0  0  0  0  0  0  0  0
   23.8590   40.1580    6.7900 O   0  0  0  0  0  0  0  0  0  0  0  0
   26.5850   40.6360    6.0530 C   0  0  0  0  0  0  0  0  0  0  0  0
   27.4210   39.6210    5.3520 C   0  0  2  0  0  0  0  0  0  0  0  0
   28.9000   39.9700    5.3140 C   0  0  2  0  0  0  0  0  0  0  0  0
   29.6560   39.2880    6.4110 C   0  0  2  0  0  0  0  0  0  0  0  0
   29.4020   39.8910    8.6390 C   0  0  2  0  0  0  0  0  0  0  0  0
   30.8540   39.6620    8.9820 C   0  0  0  0  0  0  0  0  0  0  0  0
   28.9740   39.1090    7.5780 O   0  0  0  0  0  0  0  0  0  0  0  0
   31.6400   39.1590    7.7900 C   0  0  1  0  0  0  0  0  0  0  0  0
   31.0460   39.8940    6.5810 C   0  0  1  0  0  0  0  0  0  0  0  0
   29.1480   41.2490    8.4240 O   0  0  0  0  0  0  0  0  0  0  0  0
   29.1350   41.7760    9.2450 H   0  0  0  0  0  0  0  0  0  0  0  0
   28.6010   39.4870    9.8250 C   0  0  0  0  0  0  0  0  0  0  0  0
   29.0390   39.7670   10.9830 O   0  0  0  0  0  0  0  0  0  0  0  0
   27.3980   38.8190    9.7420 O   0  0  0  0  0  0  0  0  0  0  0  0
   27.2590   37.9640   10.3030 H   0  0  0  0  0  0  0  0  0  0  0  0
   32.9930   39.3570    7.9070 O   0  0  0  0  0  0  0  0  0  0  0  0
   33.1590   39.6740    8.8470 H   0  0  0  0  0  0  0  0  0  0  0  0
   31.8170   39.6330    5.3910 N   0  0  0  0  0  0  0  0  0  0  0  0
   32.8150   40.5560    4.9510 C   0  0  0  0  0  0  0  0  0  0  0  0
   31.6920   38.7750    4.7990 H   0  0  0  0  0  0  0  0  0  0  0  0
   33.6210   40.3190    3.7390 C   0  0  0  0  0  0  0  0  0  0  0  0
   33.0170   41.6050    5.6120 O   0  0  0  0  0  0  0  0  0  0  0  0
   29.0800   41.3320    5.2560 O   0  0  0  0  0  0  0  0  0  0  0  0
   30.0170   41.5210    5.0390 H   0  0  0  0  0  0  0  0  0  0  0  0
   26.9850   39.5430    4.0070 O   0  0  0  0  0  0  0  0  0  0  0  0
   26.9370   40.4370    3.5980 H   0  0  0  0  0  0  0  0  0  0  0  0
   23.9080   38.0280    8.8910 C   0  0  0  0  0  0  0  0  0  0  0  0
   25.0090   37.0540    8.7810 C   0  0  0  0  0  0  0  0  0  0  0  0
   25.4160   36.0650    9.6630 C   0  0  0  0  0  0  0  0  0  0  0  0
   25.8500   36.9580    7.7440 N   0  0  0  0  0  0  0  0  0  0  0  0
   26.4690   35.4160    9.1380 N   0  0  0  0  0  0  0  0  0  0  0  0
   26.7120   35.9750    7.9790 N   0  0  0  0  0  0  0  0  0  0  0  0
   27.1860   34.2860    9.7910 C   0  0  0  0  0  0  0  0  0  0  0  0
   28.5870   34.6890   10.0920 C   0  0  2  0  0  0  0  0  0  0  0  0
   29.4980   33.9610    9.1180 C   0  0  0  0  0  0  0  0  0  0  0  0
   30.4040   34.9430    8.4700 C   0  0  0  0  0  0  0  0  0  0  0  0
   30.1400   36.1590    8.4740 O   0  0  0  0  0  0  0  0  0  0  0  0
   31.5580   34.4450    7.8580 O   0  0  0  0  0  0  0  0  0  0  0  0
   31.5240   33.5640    7.3840 H   0  0  0  0  0  0  0  0  0  0  0  0
   28.9540   34.5340   11.5100 C   0  0  0  0  0  0  0  0  0  0  0  0
   28.1340   35.2300   12.5290 C   0  0  0  0  0  0  0  0  0  0  0  0
   28.7970   34.8930   13.8950 C   0  0  0  0  0  0  0  0  0  0  0  0
   28.0530   36.7150   12.4430 C   0  0  0  0  0  0  0  0  0  0  0  0
   29.8670   25.5550   16.9770 C   0  0  0  0  0  0  0  0  0  0  0  0
   28.3450   25.7220   17.0260 C   0  0  0  0  0  0  0  0  0  0  0  0
   27.6000   24.4090   16.8430 C   0  0  0  0  0  0  0  0  0  0  0  0
   26.7810   24.0490   18.0510 C   0  0  0  0  0  0  0  0  0  0  0  0
   26.0770   25.2950   18.5780 C   0  0  0  0  0  0  0  0  0  0  0  0
   25.5330   25.0490   19.9340 N   0  0  0  0  0  0  0  0  0  0  0  0
  1 32  1  0  0  0  0
  2  1  1  0  0  0  0
  3  2  1  0  0  0  0
  3  4  1  0  0  0  0
  5  2  2  0  0  0  0
  6  3  1  0  0  0  0
  7  6  1  1  0  0  0
  8 28  1  1  0  0  0
  8  7  1  0  0  0  0
  9  8  1  6  0  0  0
  9 14  1  0  0  0  0
  9 12  1  0  0  0  0
 10 15  1  6  0  0  0
 10 11  1  0  0  0  0
 10 17  1  0  0  0  0
 12 10  1  0  0  0  0
 13 21  1  1  0  0  0
 13 11  1  0  0  0  0
 14 23  1  6  0  0  0
 14 13  1  0  0  0  0
 15 16  1  0  0  0  0
 17 18  2  0  0  0  0
 19 17  1  0  0  0  0
 19 20  1  0  0  0  0
 21 22  1  0  0  0  0
 24 23  1  0  0  0  0
 24 27  2  0  0  0  0
 25 23  1  0  0  0  0
 26 24  1  0  0  0  0
 29 28  1  0  0  0  0
 30  7  1  0  0  0  0
 31 30  1  0  0  0  0
 33 32  1  0  0  0  0
 33 34  2  0  0  0  0
 35 37  2  0  0  0  0
 35 33  1  0  0  0  0
 36 34  1  0  0  0  0
 36 38  1  0  0  0  0
 37 36  1  0  0  0  0
 38 39  1  0  0  0  0
 39 40  1  6  0  0  0
 39 45  1  0  0  0  0
 41 42  2  0  0  0  0
 41 40  1  0  0  0  0
 43 41  1  0  0  0  0
 44 43  1  0  0  0  0
 45 46  1  0  0  0  0
 46 47  1  0  0  0  0
 48 46  1  0  0  0  0
 49 50  1  0  0  0  0
 51 50  1  0  0  0  0
 51 52  1  0  0  0  0
 52 53  1  0  0  0  0
 53 54  1  0  0  0  0
M  END
>  <REMARK>
 VINA RESULT:    -4.136      7.720     13.641
 INTER + INTRA:         -15.607
 INTER:                  -9.887
 INTRA:                  -5.720
 UNBOUND:                -7.118
 SMILES CC(=O)N[C@@H]1[C@@H](O)C[C@](O)(C(=O)O)O[C@H]1C(O)[C@H](O)CNC(=O)OCc1cn(C[C@H](CC(=O)O)CC(C)C)nn1
 SMILES IDX 24 1 22 2 21 3 23 5 20 6 18 7 16 8 15 9 9 10 8 11 14 12 6 13
 SMILES IDX 5 14 10 15 11 17 12 18 13 19 7 21 4 23 2 24 1 26 3 27 17 28
 SMILES IDX 19 30 25 32 26 33 27 34 40 35 28 36 39 37 29 38 30 39 31 40
 SMILES IDX 32 41 33 42 34 43 35 45 36 46 37 47 38 48
 H PARENT 21 4 10 16 13 20 7 22 4 25 17 29 19 31 34 44
 Flexibility Score: inf
  4 active torsions:
  status: ('A' for Active; 'I' for Inactive)
    1  A    between atoms: CA   and  CB  
    2  A    between atoms: CB   and  CG  
    3  A    between atoms: CG   and  CD  
    4  A    between atoms: CD   and  CE  

>  <TORSDO>
F 21

>  <BEGIN_>
RES LYS A 131

$$$$
ligand_74_pose_12_2HRL.pdbqt
 OpenBabel07062320523D

  6  5  0  0  0  0  0  0  0  0999 V2000
   33.1930   34.6630    9.2900 C   0  0  0  0  0  0  0  0  0  0  0  0
   32.0600   35.3600   10.0340 C   0  0  0  0  0  0  0  0  0  0  0  0
   32.3910   35.6840   11.4680 C   0  0  0  0  0  0  0  0  0  0  0  0
   31.7920   37.0240   11.8670 C   0  0  0  0  0  0  0  0  0  0  0  0
   31.7540   37.1620   13.3770 C   0  0  0  0  0  0  0  0  0  0  0  0
   30.9780   38.3650   13.7870 N   0  0  0  0  0  0  0  0  0  0  0  0
  1  2  1  0  0  0  0
  2  3  1  0  0  0  0
  3  4  1  0  0  0  0
  4  5  1  0  0  0  0
  5  6  1  0  0  0  0
M  END
>  <EGIN_R>
ES LYS A 135

>  <REMARK>
  4 active torsions:
  status: ('A' for Active; 'I' for Inactive)
    5  A    between atoms: CA   and  CB  
    6  A    between atoms: CB   and  CG  
    7  A    between atoms: CG   and  CD  
    8  A    between atoms: CD   and  CE  

$$$$
