ligand_51_pose_2_2HRL.pdbqt
 OpenBabel07062320523D

 53 56  0  0  1  0  0  0  0  0999 V2000
   26.0680   28.3060   18.7120 C   0  0  0  0  0  0  0  0  0  0  0  0
   27.5380   28.0130   18.5480 C   0  0  2  0  0  0  0  0  0  0  0  0
   28.1150   27.2490   19.7220 C   0  0  1  0  0  0  0  0  0  0  0  0
   28.8190   28.2130   20.6830 C   0  0  2  0  0  0  0  0  0  0  0  0
   31.0950   27.7230   20.9680 C   0  0  2  0  0  0  0  0  0  0  0  0
   30.6440   26.6180   21.8890 C   0  0  0  0  0  0  0  0  0  0  0  0
   30.1200   28.4340   20.3590 O   0  0  0  0  0  0  0  0  0  0  0  0
   29.6130   27.1380   22.8270 C   0  0  1  0  0  0  0  0  0  0  0  0
   28.5390   27.9110   22.1090 C   0  0  1  0  0  0  0  0  0  0  0  0
   31.8310   27.0700   19.9510 O   0  0  0  0  0  0  0  0  0  0  0  0
   31.1890   26.8680   19.2210 H   0  0  0  0  0  0  0  0  0  0  0  0
   32.0620   28.5550   21.7270 C   0  0  0  0  0  0  0  0  0  0  0  0
   31.8560   29.7750   21.9670 O   0  0  0  0  0  0  0  0  0  0  0  0
   33.2300   27.9930   22.1940 O   0  0  0  0  0  0  0  0  0  0  0  0
   33.2930   27.0210   22.4980 H   0  0  0  0  0  0  0  0  0  0  0  0
   29.0840   26.0330   23.5320 O   0  0  0  0  0  0  0  0  0  0  0  0
   28.5270   25.4910   22.9340 H   0  0  0  0  0  0  0  0  0  0  0  0
   28.2900   29.1650   22.8080 N   0  0  0  0  0  0  0  0  0  0  0  0
   27.4570   29.2440   23.9540 C   0  0  0  0  0  0  0  0  0  0  0  0
   28.7430   30.0580   22.4560 H   0  0  0  0  0  0  0  0  0  0  0  0
   27.2610   30.5510   24.5970 C   0  0  0  0  0  0  0  0  0  0  0  0
   26.9150   28.1780   24.3760 O   0  0  0  0  0  0  0  0  0  0  0  0
   27.2080   26.4510   20.3500 O   0  0  0  0  0  0  0  0  0  0  0  0
   27.1470   25.5310   20.0530 H   0  0  0  0  0  0  0  0  0  0  0  0
   28.1900   29.2260   18.3440 O   0  0  0  0  0  0  0  0  0  0  0  0
   27.8130   29.9010   18.9930 H   0  0  0  0  0  0  0  0  0  0  0  0
   25.9440   29.7300   18.9660 N   0  0  0  0  0  0  0  0  0  0  0  0
   25.6390   30.2450   20.2730 C   0  0  0  0  0  0  0  0  0  0  0  0
   26.0660   30.4590   18.2240 H   0  0  0  0  0  0  0  0  0  0  0  0
   25.4840   29.4120   21.2000 O   0  0  0  0  0  0  0  0  0  0  0  0
   25.5180   31.5890   20.5290 O   0  0  0  0  0  0  0  0  0  0  0  0
   26.5490   32.2540   21.2230 C   0  0  0  0  0  0  0  0  0  0  0  0
   27.7790   32.1790   20.3710 C   0  0  0  0  0  0  0  0  0  0  0  0
   27.9090   32.7980   19.1420 C   0  0  0  0  0  0  0  0  0  0  0  0
   28.9330   31.5500   20.5760 N   0  0  0  0  0  0  0  0  0  0  0  0
   29.1140   32.5200   18.6680 N   0  0  0  0  0  0  0  0  0  0  0  0
   29.7280   31.7600   19.5500 N   0  0  0  0  0  0  0  0  0  0  0  0
   29.6310   32.9970   17.3820 C   0  0  2  0  0  0  0  0  0  0  0  0
   31.1140   33.2700   17.5930 C   0  0  0  0  0  0  0  0  0  0  0  0
   28.9260   34.2470   16.9540 C   0  0  0  0  0  0  0  0  0  0  0  0
   29.4240   31.9320   16.3350 C   0  0  0  0  0  0  0  0  0  0  0  0
   31.7220   33.7450   16.2880 C   0  0  1  0  0  0  0  0  0  0  0  0
   29.5760   34.7460   15.6830 C   0  0  1  0  0  0  0  0  0  0  0  0
   30.0440   32.3990   15.0360 C   0  0  2  0  0  0  0  0  0  0  0  0
   31.5210   32.6750   15.2550 C   0  0  0  0  0  0  0  0  0  0  0  0
   31.0320   35.0290   15.9030 C   0  0  0  0  0  0  0  0  0  0  0  0
   29.3680   33.6850   14.6260 C   0  0  0  0  0  0  0  0  0  0  0  0
   29.8670   25.5550   16.9770 C   0  0  0  0  0  0  0  0  0  0  0  0
   28.3450   25.7220   17.0260 C   0  0  0  0  0  0  0  0  0  0  0  0
   27.5990   24.4240   16.7590 C   0  0  0  0  0  0  0  0  0  0  0  0
   26.6410   24.0830   17.8660 C   0  0  0  0  0  0  0  0  0  0  0  0
   25.2220   24.0150   17.3080 C   0  0  0  0  0  0  0  0  0  0  0  0
   24.4940   25.2750   17.5880 N   0  0  0  0  0  0  0  0  0  0  0  0
  1 27  1  0  0  0  0
  2  1  1  1  0  0  0
  2  3  1  0  0  0  0
  3 23  1  1  0  0  0
  4  3  1  6  0  0  0
  4  9  1  0  0  0  0
  5 10  1  6  0  0  0
  5 12  1  0  0  0  0
  5  6  1  0  0  0  0
  6  8  1  0  0  0  0
  7  4  1  0  0  0  0
  7  5  1  0  0  0  0
  8 16  1  6  0  0  0
  9 18  1  1  0  0  0
  9  8  1  0  0  0  0
 11 10  1  0  0  0  0
 12 13  2  0  0  0  0
 12 14  1  0  0  0  0
 14 15  1  0  0  0  0
 17 16  1  0  0  0  0
 18 19  1  0  0  0  0
 19 22  2  0  0  0  0
 19 21  1  0  0  0  0
 20 18  1  0  0  0  0
 24 23  1  0  0  0  0
 25  2  1  0  0  0  0
 25 26  1  0  0  0  0
 27 28  1  0  0  0  0
 28 31  1  0  0  0  0
 28 30  2  0  0  0  0
 29 27  1  0  0  0  0
 31 32  1  0  0  0  0
 33 35  1  0  0  0  0
 33 32  1  0  0  0  0
 34 33  2  0  0  0  0
 36 34  1  0  0  0  0
 36 37  1  0  0  0  0
 37 35  2  0  0  0  0
 38 41  1  6  0  0  0
 38 39  1  0  0  0  0
 38 36  1  0  0  0  0
 40 38  1  0  0  0  0
 42 45  1  6  0  0  0
 42 39  1  0  0  0  0
 43 47  1  6  0  0  0
 43 46  1  0  0  0  0
 43 40  1  0  0  0  0
 44 47  1  1  0  0  0
 44 45  1  0  0  0  0
 44 41  1  0  0  0  0
 46 42  1  0  0  0  0
 48 49  1  0  0  0  0
 50 49  1  0  0  0  0
 50 51  1  0  0  0  0
 52 53  1  0  0  0  0
 52 51  1  0  0  0  0
M  END
>  <REMARK>
 VINA RESULT:    -5.076      1.986      3.011
 INTER + INTRA:         -15.340
 INTER:                  -8.576
 INTRA:                  -6.764
 UNBOUND:                -6.554
 SMILES CC(=O)N[C@@H]1[C@@H](O)C[C@](O)(C(=O)O)O[C@H]1C(O)[C@H](O)CNC(=O)OCc1cn(C23CC4CC(CC(C4)C2)C3)nn1
 SMILES IDX 20 1 18 2 16 3 15 4 9 5 8 6 14 7 6 8 5 9 10 10 11 12 12 13
 SMILES IDX 13 14 7 16 4 18 2 19 1 21 3 22 17 23 19 25 21 27 22 28 23 30
 SMILES IDX 24 31 25 32 26 33 27 34 40 35 28 36 39 37 29 38 38 39 37 40
 SMILES IDX 30 41 33 42 35 43 31 44 32 45 34 46 36 47
 H PARENT 10 11 13 15 7 17 4 20 17 24 19 26 21 29
 Flexibility Score: inf
  4 active torsions:
  status: ('A' for Active; 'I' for Inactive)
    1  A    between atoms: CA   and  CB  
    2  A    between atoms: CB   and  CG  
    3  A    between atoms: CG   and  CD  
    4  A    between atoms: CD   and  CE  

>  <TORSDO>
F 15

>  <BEGIN_>
RES LYS A 131

$$$$
ligand_51_pose_2_2HRL.pdbqt
 OpenBabel07062320523D

  6  5  0  0  0  0  0  0  0  0999 V2000
   33.1930   34.6630    9.2900 C   0  0  0  0  0  0  0  0  0  0  0  0
   32.0600   35.3600   10.0340 C   0  0  0  0  0  0  0  0  0  0  0  0
   30.7650   34.5900   10.0170 C   0  0  0  0  0  0  0  0  0  0  0  0
   30.2600   34.4190    8.5930 C   0  0  0  0  0  0  0  0  0  0  0  0
   29.5830   35.6880    8.1120 C   0  0  0  0  0  0  0  0  0  0  0  0
   28.9670   35.4920    6.7700 N   0  0  0  0  0  0  0  0  0  0  0  0
  1  2  1  0  0  0  0
  3  2  1  0  0  0  0
  4  3  1  0  0  0  0
  5  4  1  0  0  0  0
  6  5  1  0  0  0  0
M  END
>  <EGIN_R>
ES LYS A 135

>  <REMARK>
  4 active torsions:
  status: ('A' for Active; 'I' for Inactive)
    5  A    between atoms: CA   and  CB  
    6  A    between atoms: CB   and  CG  
    7  A    between atoms: CG   and  CD  
    8  A    between atoms: CD   and  CE  

$$$$
