ligand_64_pose_1_2HRL.pdbqt
 OpenBabel07062320523D

 59 61  0  0  1  0  0  0  0  0999 V2000
   24.9200   39.4020    6.6440 N   0  0  0  0  0  0  0  0  0  0  0  0
   23.7650   39.3030    7.4830 C   0  0  0  0  0  0  0  0  0  0  0  0
   22.9770   40.2820    7.5290 O   0  0  0  0  0  0  0  0  0  0  0  0
   25.5430   38.5430    6.6520 H   0  0  0  0  0  0  0  0  0  0  0  0
   25.2270   40.5590    5.8490 C   0  0  0  0  0  0  0  0  0  0  0  0
   26.6570   40.5440    5.4000 C   0  0  2  0  0  0  0  0  0  0  0  0
   27.2680   39.2120    5.8170 C   0  0  2  0  0  0  0  0  0  0  0  0
   28.5560   39.4410    6.5290 C   0  0  2  0  0  0  0  0  0  0  0  0
   30.7010   40.2550    6.1510 C   0  0  2  0  0  0  0  0  0  0  0  0
   30.7430   40.1460    7.6710 C   0  0  0  0  0  0  0  0  0  0  0  0
   29.4460   40.0700    5.6320 O   0  0  0  0  0  0  0  0  0  0  0  0
   30.3260   38.7660    8.0370 C   0  0  1  0  0  0  0  0  0  0  0  0
   29.2740   38.2380    7.0360 C   0  0  1  0  0  0  0  0  0  0  0  0
   31.6050   39.2640    5.7000 O   0  0  0  0  0  0  0  0  0  0  0  0
   32.3080   39.7610    5.2070 H   0  0  0  0  0  0  0  0  0  0  0  0
   31.1950   41.5680    5.6950 C   0  0  0  0  0  0  0  0  0  0  0  0
   32.4170   41.7720    5.5840 O   0  0  0  0  0  0  0  0  0  0  0  0
   30.3100   42.5800    5.3870 O   0  0  0  0  0  0  0  0  0  0  0  0
   30.4320   43.1960    4.5880 H   0  0  0  0  0  0  0  0  0  0  0  0
   31.3700   37.8770    8.1650 O   0  0  0  0  0  0  0  0  0  0  0  0
   31.6110   37.4910    7.2950 H   0  0  0  0  0  0  0  0  0  0  0  0
   28.4680   37.2540    7.7070 N   0  0  0  0  0  0  0  0  0  0  0  0
   28.2260   35.9570    7.1220 C   0  0  0  0  0  0  0  0  0  0  0  0
   28.0600   37.4610    8.6210 H   0  0  0  0  0  0  0  0  0  0  0  0
   27.4090   34.9220    7.7730 C   0  0  0  0  0  0  0  0  0  0  0  0
   28.7690   35.7640    5.9930 O   0  0  0  0  0  0  0  0  0  0  0  0
   27.3470   38.2980    4.8020 O   0  0  0  0  0  0  0  0  0  0  0  0
   26.5130   38.0940    4.3430 H   0  0  0  0  0  0  0  0  0  0  0  0
   27.2900   41.5800    6.1160 O   0  0  0  0  0  0  0  0  0  0  0  0
   26.9290   42.4120    5.7450 H   0  0  0  0  0  0  0  0  0  0  0  0
   23.5290   38.1550    8.2250 O   0  0  0  0  0  0  0  0  0  0  0  0
   24.5650   37.1970    8.3100 C   0  0  0  0  0  0  0  0  0  0  0  0
   24.7430   36.8740    9.7490 C   0  0  0  0  0  0  0  0  0  0  0  0
   24.7370   35.6020   10.3330 C   0  0  0  0  0  0  0  0  0  0  0  0
   24.9470   37.7020   10.8010 N   0  0  0  0  0  0  0  0  0  0  0  0
   24.9300   35.7090   11.6600 N   0  0  0  0  0  0  0  0  0  0  0  0
   25.0540   36.9900   11.9150 N   0  0  0  0  0  0  0  0  0  0  0  0
   24.9790   34.5800   12.5570 C   0  0  0  0  0  0  0  0  0  0  0  0
   25.7830   34.5760   13.6670 C   0  0  0  0  0  0  0  0  0  0  0  0
   24.2020   33.4540   12.3100 C   0  0  0  0  0  0  0  0  0  0  0  0
   25.8540   33.5140   14.5440 C   0  0  0  0  0  0  0  0  0  0  0  0
   24.2630   32.3910   13.1740 C   0  0  0  0  0  0  0  0  0  0  0  0
   25.0800   32.4580   14.2500 N   0  0  0  0  0  0  0  0  0  0  0  0
   26.7140   33.5330   15.7160 C   0  0  0  0  0  0  0  0  0  0  0  0
   26.3500   34.1730   16.7220 O   0  0  0  0  0  0  0  0  0  0  0  0
   27.9170   32.8600   15.7400 O   0  0  0  0  0  0  0  0  0  0  0  0
   28.8120   33.3130   15.5230 H   0  0  0  0  0  0  0  0  0  0  0  0
   23.4520   31.1830   12.9370 C   0  0  0  0  0  0  0  0  0  0  0  0
   22.1050   31.3440   12.6890 C   0  0  0  0  0  0  0  0  0  0  0  0
   24.0270   29.9450   12.9660 C   0  0  0  0  0  0  0  0  0  0  0  0
   21.3450   30.2200   12.4680 C   0  0  0  0  0  0  0  0  0  0  0  0
   23.2270   28.8420   12.7380 C   0  0  0  0  0  0  0  0  0  0  0  0
   21.8780   28.9480   12.4860 C   0  0  0  0  0  0  0  0  0  0  0  0
   29.8670   25.5550   16.9770 C   0  0  0  0  0  0  0  0  0  0  0  0
   28.3450   25.7220   17.0260 C   0  0  0  0  0  0  0  0  0  0  0  0
   27.6010   24.4020   16.8890 C   0  0  0  0  0  0  0  0  0  0  0  0
   26.2080   24.4770   17.4490 C   0  0  0  0  0  0  0  0  0  0  0  0
   25.6660   23.0660   17.6540 C   0  0  0  0  0  0  0  0  0  0  0  0
   24.2840   22.9590   17.1290 N   0  0  0  0  0  0  0  0  0  0  0  0
  1  4  1  0  0  0  0
  1  2  1  0  0  0  0
  2  3  2  0  0  0  0
  2 31  1  0  0  0  0
  5  1  1  0  0  0  0
  6  7  1  0  0  0  0
  6  5  1  1  0  0  0
  6 29  1  0  0  0  0
  7 27  1  6  0  0  0
  8  7  1  6  0  0  0
  8 13  1  0  0  0  0
  9 16  1  6  0  0  0
  9 10  1  0  0  0  0
 10 12  1  0  0  0  0
 11  9  1  0  0  0  0
 11  8  1  0  0  0  0
 12 20  1  6  0  0  0
 13 22  1  1  0  0  0
 13 12  1  0  0  0  0
 14  9  1  0  0  0  0
 15 14  1  0  0  0  0
 17 16  2  0  0  0  0
 18 16  1  0  0  0  0
 19 18  1  0  0  0  0
 21 20  1  0  0  0  0
 22 24  1  0  0  0  0
 23 22  1  0  0  0  0
 23 25  1  0  0  0  0
 26 23  2  0  0  0  0
 28 27  1  0  0  0  0
 30 29  1  0  0  0  0
 31 32  1  0  0  0  0
 32 33  1  0  0  0  0
 33 34  2  0  0  0  0
 33 35  1  0  0  0  0
 34 36  1  0  0  0  0
 35 37  2  0  0  0  0
 36 37  1  0  0  0  0
 36 38  1  0  0  0  0
 38 39  1  0  0  0  0
 39 41  2  0  0  0  0
 40 38  2  0  0  0  0
 40 42  1  0  0  0  0
 41 44  1  0  0  0  0
 42 43  2  0  0  0  0
 43 41  1  0  0  0  0
 44 46  1  0  0  0  0
 44 45  2  0  0  0  0
 47 46  1  0  0  0  0
 48 50  1  0  0  0  0
 48 42  1  0  0  0  0
 49 48  2  0  0  0  0
 51 53  2  0  0  0  0
 51 49  1  0  0  0  0
 52 50  2  0  0  0  0
 53 52  1  0  0  0  0
 54 55  1  0  0  0  0
 56 55  1  0  0  0  0
 56 57  1  0  0  0  0
 57 58  1  0  0  0  0
 59 58  1  0  0  0  0
M  END
>  <REMARK>
 VINA RESULT:    -6.202      3.786      8.570
 INTER + INTRA:         -16.857
 INTER:                 -11.520
 INTRA:                  -5.337
 UNBOUND:                -5.216
 SMILES CC(=O)N[C@@H]1[C@@H](O)C[C@](O)(C(=O)O)O[C@H]1C(O)[C@H](O)CNC(=O)OCc1cn(-c2cc(C(=O)O)nc(-c3ccccc3)c2)nn1
 SMILES IDX 21 1 22 2 23 3 20 5 18 6 16 7 15 8 9 9 8 10 14 11 6 12 5 13
 SMILES IDX 10 14 11 16 12 17 13 18 7 20 4 22 2 23 1 25 3 26 17 27 19 29
 SMILES IDX 24 31 25 32 26 33 27 34 45 35 28 36 44 37 29 38 30 39 43 40
 SMILES IDX 31 41 36 42 35 43 32 44 33 45 34 46 37 48 38 49 42 50 39 51
 SMILES IDX 41 52 40 53
 H PARENT 21 4 10 15 13 19 7 21 4 24 17 28 19 30 34 47
 Flexibility Score: inf
  4 active torsions:
  status: ('A' for Active; 'I' for Inactive)
    1  A    between atoms: CA   and  CB  
    2  A    between atoms: CB   and  CG  
    3  A    between atoms: CG   and  CD  
    4  A    between atoms: CD   and  CE  

>  <TORSDO>
F 18

>  <BEGIN_>
RES LYS A 131

$$$$
ligand_64_pose_1_2HRL.pdbqt
 OpenBabel07062320523D

  6  5  0  0  0  0  0  0  0  0999 V2000
   33.1930   34.6630    9.2900 C   0  0  0  0  0  0  0  0  0  0  0  0
   32.0600   35.3600   10.0340 C   0  0  0  0  0  0  0  0  0  0  0  0
   30.6910   34.8550    9.6570 C   0  0  0  0  0  0  0  0  0  0  0  0
   29.7450   34.9300   10.8450 C   0  0  0  0  0  0  0  0  0  0  0  0
   30.5040   35.2910   12.1080 C   0  0  0  0  0  0  0  0  0  0  0  0
   30.1510   34.3740   13.2270 N   0  0  0  0  0  0  0  0  0  0  0  0
  1  2  1  0  0  0  0
  3  2  1  0  0  0  0
  3  4  1  0  0  0  0
  4  5  1  0  0  0  0
  5  6  1  0  0  0  0
M  END
>  <EGIN_R>
ES LYS A 135

>  <REMARK>
  4 active torsions:
  status: ('A' for Active; 'I' for Inactive)
    5  A    between atoms: CA   and  CB  
    6  A    between atoms: CB   and  CG  
    7  A    between atoms: CG   and  CD  
    8  A    between atoms: CD   and  CE  

$$$$
