ligand_88_pose_17_2HRL.pdbqt
 OpenBabel07062320523D

 54 54  0  0  1  0  0  0  0  0999 V2000
   27.0190   38.4060    5.2990 N   0  0  0  0  0  0  0  0  0  0  0  0
   28.0640   37.4430    5.3890 C   0  0  0  0  0  0  0  0  0  0  0  0
   29.2460   37.8120    5.2040 O   0  0  0  0  0  0  0  0  0  0  0  0
   26.0500   38.0760    5.4550 H   0  0  0  0  0  0  0  0  0  0  0  0
   27.2780   39.7890    5.0020 C   0  0  0  0  0  0  0  0  0  0  0  0
   27.2230   40.6300    6.2450 C   0  0  2  0  0  0  0  0  0  0  0  0
   27.4790   39.8170    7.4960 C   0  0  1  0  0  0  0  0  0  0  0  0
   28.6320   40.4570    8.2910 C   0  0  2  0  0  0  0  0  0  0  0  0
   30.7960   39.5520    8.4850 C   0  0  1  0  0  0  0  0  0  0  0  0
   30.8210   40.2090    9.8730 C   0  0  0  0  0  0  0  0  0  0  0  0
   29.7750   40.0370    7.7380 O   0  0  0  0  0  0  0  0  0  0  0  0
   29.5400   39.7070   10.5220 C   0  0  1  0  0  0  0  0  0  0  0  0
   28.4050   40.2950    9.7340 C   0  0  1  0  0  0  0  0  0  0  0  0
   30.7550   38.1920    8.7180 O   0  0  0  0  0  0  0  0  0  0  0  0
   31.6100   37.8160    9.0420 H   0  0  0  0  0  0  0  0  0  0  0  0
   32.0650   39.8680    7.7820 C   0  0  0  0  0  0  0  0  0  0  0  0
   32.5360   41.0290    7.8810 O   0  0  0  0  0  0  0  0  0  0  0  0
   32.7490   38.9260    7.0210 O   0  0  0  0  0  0  0  0  0  0  0  0
   32.3120   38.6870    6.1190 H   0  0  0  0  0  0  0  0  0  0  0  0
   29.5070   38.3140   10.5400 O   0  0  0  0  0  0  0  0  0  0  0  0
   29.9070   37.9980    9.7040 H   0  0  0  0  0  0  0  0  0  0  0  0
   28.0290   41.5410   10.4010 N   0  0  0  0  0  0  0  0  0  0  0  0
   26.7430   41.7710   10.9490 C   0  0  0  0  0  0  0  0  0  0  0  0
   28.7220   42.3350   10.5000 H   0  0  0  0  0  0  0  0  0  0  0  0
   26.4020   43.0610   11.6230 C   0  0  0  0  0  0  0  0  0  0  0  0
   25.8660   40.8740   10.8700 O   0  0  0  0  0  0  0  0  0  0  0  0
   26.3640   39.6080    8.2680 O   0  0  0  0  0  0  0  0  0  0  0  0
   25.7700   40.3880    8.2950 H   0  0  0  0  0  0  0  0  0  0  0  0
   26.0560   41.3600    6.2780 O   0  0  0  0  0  0  0  0  0  0  0  0
   25.2740   40.8880    5.9360 H   0  0  0  0  0  0  0  0  0  0  0  0
   27.7850   36.1290    5.6730 O   0  0  0  0  0  0  0  0  0  0  0  0
   28.2900   35.4880    6.8310 C   0  0  0  0  0  0  0  0  0  0  0  0
   27.4750   35.9080    8.0010 C   0  0  0  0  0  0  0  0  0  0  0  0
   26.2290   35.4160    8.3680 C   0  0  0  0  0  0  0  0  0  0  0  0
   27.7500   36.8300    8.9420 N   0  0  0  0  0  0  0  0  0  0  0  0
   25.8150   36.0410    9.4800 N   0  0  0  0  0  0  0  0  0  0  0  0
   26.7760   36.9160    9.8190 N   0  0  0  0  0  0  0  0  0  0  0  0
   24.5890   35.8420   10.2020 C   0  0  0  0  0  0  0  0  0  0  0  0
   23.4150   36.4650    9.5380 C   0  0  0  0  0  0  0  0  0  0  0  0
   22.4120   35.6360    9.0770 C   0  0  0  0  0  0  0  0  0  0  0  0
   23.2810   37.8210    9.3600 C   0  0  0  0  0  0  0  0  0  0  0  0
   21.2810   36.1060    8.4450 C   0  0  0  0  0  0  0  0  0  0  0  0
   22.1430   38.3250    8.7220 C   0  0  0  0  0  0  0  0  0  0  0  0
   19.9140   34.9420    7.8220 Br  0  0  0  0  0  0  0  0  0  0  0  0
   21.1590   37.4790    8.2710 C   0  0  0  0  0  0  0  0  0  0  0  0
   22.0360   40.2300    8.5140 Br  0  0  0  0  0  0  0  0  0  0  0  0
   24.2680   38.6780    9.8100 O   0  0  0  0  0  0  0  0  0  0  0  0
   24.4900   38.6990   10.7960 H   0  0  0  0  0  0  0  0  0  0  0  0
   29.8670   25.5550   16.9770 C   0  0  0  0  0  0  0  0  0  0  0  0
   28.3450   25.7220   17.0260 C   0  0  0  0  0  0  0  0  0  0  0  0
   27.6010   24.4030   16.8880 C   0  0  0  0  0  0  0  0  0  0  0  0
   26.1740   24.5060   17.3490 C   0  0  0  0  0  0  0  0  0  0  0  0
   25.6150   23.1080   17.5940 C   0  0  0  0  0  0  0  0  0  0  0  0
   25.0910   22.9940   18.9760 N   0  0  0  0  0  0  0  0  0  0  0  0
  1  2  1  0  0  0  0
  1  4  1  0  0  0  0
  2 31  1  0  0  0  0
  3  2  2  0  0  0  0
  5  1  1  0  0  0  0
  6  5  1  6  0  0  0
  6 29  1  0  0  0  0
  6  7  1  0  0  0  0
  7 27  1  1  0  0  0
  8  7  1  6  0  0  0
  8 13  1  0  0  0  0
  9 16  1  6  0  0  0
  9 10  1  0  0  0  0
 10 12  1  0  0  0  0
 11  8  1  0  0  0  0
 11  9  1  0  0  0  0
 12 20  1  6  0  0  0
 13 22  1  1  0  0  0
 13 12  1  0  0  0  0
 14 15  1  0  0  0  0
 16 17  2  0  0  0  0
 18 16  1  0  0  0  0
 19 18  1  0  0  0  0
 21 20  1  0  0  0  0
 22 24  1  0  0  0  0
 22 23  1  0  0  0  0
 23 25  1  0  0  0  0
 26 23  2  0  0  0  0
 27 28  1  0  0  0  0
 30 29  1  0  0  0  0
 31 32  1  0  0  0  0
 32 33  1  0  0  0  0
 33 34  2  0  0  0  0
 33 35  1  0  0  0  0
 34 36  1  0  0  0  0
 35 37  2  0  0  0  0
 36 37  1  0  0  0  0
 36 38  1  0  0  0  0
 39 38  1  0  0  0  0
 40 39  2  0  0  0  0
 41 39  1  0  0  0  0
 41 47  1  0  0  0  0
 42 40  1  0  0  0  0
 43 41  2  0  0  0  0
 44 42  1  0  0  0  0
 45 42  2  0  0  0  0
 45 43  1  0  0  0  0
 46 43  1  0  0  0  0
 47 48  1  0  0  0  0
 49 50  1  0  0  0  0
 51 50  1  0  0  0  0
 51 52  1  0  0  0  0
 52 53  1  0  0  0  0
 53 54  1  0  0  0  0
M  END
>  <REMARK>
 VINA RESULT:    -4.985      8.345     13.489
 INTER + INTRA:         -14.858
 INTER:                  -8.034
 INTRA:                  -6.825
 UNBOUND:                -5.794
 SMILES CC(=O)N[C@@H]1[C@@H](O)C[C@](O)(C(=O)O)O[C@H]1C(O)[C@H](O)CNC(=O)OCc1cn(Cc2cc(Br)cc(Br)c2O)nn1
 SMILES IDX 21 1 22 2 23 3 20 5 18 6 16 7 15 8 9 9 8 10 14 11 6 12 5 13
 SMILES IDX 10 14 11 16 12 17 13 18 7 20 4 22 2 23 1 25 3 26 17 27 19 29
 SMILES IDX 24 31 25 32 26 33 27 34 40 35 28 36 39 37 29 38 30 39 31 40
 SMILES IDX 37 41 32 42 35 43 33 44 34 45 36 46 38 47
 H PARENT 21 4 10 15 13 19 7 21 4 24 17 28 19 30 38 48
 Flexibility Score: inf
  4 active torsions:
  status: ('A' for Active; 'I' for Inactive)
    1  A    between atoms: CA   and  CB  
    2  A    between atoms: CB   and  CG  
    3  A    between atoms: CG   and  CD  
    4  A    between atoms: CD   and  CE  

>  <TORSDO>
F 17

>  <BEGIN_>
RES LYS A 131

$$$$
ligand_88_pose_17_2HRL.pdbqt
 OpenBabel07062320523D

  6  5  0  0  0  0  0  0  0  0999 V2000
   33.1930   34.6630    9.2900 C   0  0  0  0  0  0  0  0  0  0  0  0
   32.0600   35.3600   10.0340 C   0  0  0  0  0  0  0  0  0  0  0  0
   30.6920   34.8500    9.6630 C   0  0  0  0  0  0  0  0  0  0  0  0
   29.8280   34.6770   10.9030 C   0  0  0  0  0  0  0  0  0  0  0  0
   30.6420   34.9280   12.1580 C   0  0  0  0  0  0  0  0  0  0  0  0
   29.9850   35.9400   13.0300 N   0  0  0  0  0  0  0  0  0  0  0  0
  1  2  1  0  0  0  0
  3  2  1  0  0  0  0
  3  4  1  0  0  0  0
  4  5  1  0  0  0  0
  5  6  1  0  0  0  0
M  END
>  <EGIN_R>
ES LYS A 135

>  <REMARK>
  4 active torsions:
  status: ('A' for Active; 'I' for Inactive)
    5  A    between atoms: CA   and  CB  
    6  A    between atoms: CB   and  CG  
    7  A    between atoms: CG   and  CD  
    8  A    between atoms: CD   and  CE  

$$$$
