ligand_46_pose_17_2HRL.pdbqt
 OpenBabel07062320523D

 50 51  0  0  1  0  0  0  0  0999 V2000
   28.2550   36.7340   16.9010 N   0  0  0  0  0  0  0  0  0  0  0  0
   27.6400   36.0260   15.8490 C   0  0  0  0  0  0  0  0  0  0  0  0
   26.9850   34.9890   16.0400 O   0  0  0  0  0  0  0  0  0  0  0  0
   28.7810   37.6010   16.6170 H   0  0  0  0  0  0  0  0  0  0  0  0
   28.1860   36.3220   18.2690 C   0  0  0  0  0  0  0  0  0  0  0  0
   29.5060   35.7180   18.6890 C   0  0  2  0  0  0  0  0  0  0  0  0
   29.4780   34.2180   18.6030 C   0  0  2  0  0  0  0  0  0  0  0  0
   30.4090   33.6570   17.5550 C   0  0  2  0  0  0  0  0  0  0  0  0
   30.5520   33.9290   15.2380 C   0  0  2  0  0  0  0  0  0  0  0  0
   31.4970   32.7170   15.2830 C   0  0  0  0  0  0  0  0  0  0  0  0
   30.5730   34.4810   16.4830 O   0  0  0  0  0  0  0  0  0  0  0  0
   30.6870   31.6610   16.0310 C   0  0  1  0  0  0  0  0  0  0  0  0
   30.0640   32.2360   17.2830 C   0  0  1  0  0  0  0  0  0  0  0  0
   29.3100   33.5550   14.7680 O   0  0  0  0  0  0  0  0  0  0  0  0
   28.7280   33.3690   15.5360 H   0  0  0  0  0  0  0  0  0  0  0  0
   31.1910   34.9210   14.3010 C   0  0  0  0  0  0  0  0  0  0  0  0
   31.2820   36.1310   14.5930 O   0  0  0  0  0  0  0  0  0  0  0  0
   31.6930   34.5000   13.0850 O   0  0  0  0  0  0  0  0  0  0  0  0
   32.0230   33.5530   13.0010 H   0  0  0  0  0  0  0  0  0  0  0  0
   29.7170   31.2190   15.1290 O   0  0  0  0  0  0  0  0  0  0  0  0
   30.0420   30.4090   14.6790 H   0  0  0  0  0  0  0  0  0  0  0  0
   30.5170   31.4600   18.4520 N   0  0  0  0  0  0  0  0  0  0  0  0
   29.6340   30.6840   19.2420 C   0  0  0  0  0  0  0  0  0  0  0  0
   31.5430   31.4810   18.7200 H   0  0  0  0  0  0  0  0  0  0  0  0
   30.0420   29.8890   20.4260 C   0  0  0  0  0  0  0  0  0  0  0  0
   28.4200   30.6630   18.9200 O   0  0  0  0  0  0  0  0  0  0  0  0
   28.1730   33.7950   18.4390 O   0  0  0  0  0  0  0  0  0  0  0  0
   27.5720   34.5450   18.6650 H   0  0  0  0  0  0  0  0  0  0  0  0
   29.7330   36.1720   19.9880 O   0  0  0  0  0  0  0  0  0  0  0  0
   30.5450   36.7220   20.0650 H   0  0  0  0  0  0  0  0  0  0  0  0
   27.7490   36.4770   14.5350 O   0  0  0  0  0  0  0  0  0  0  0  0
   26.6040   36.9430   13.8630 C   0  0  0  0  0  0  0  0  0  0  0  0
   26.2810   36.1030   12.6840 C   0  0  0  0  0  0  0  0  0  0  0  0
   25.6810   36.5290   11.5290 C   0  0  0  0  0  0  0  0  0  0  0  0
   26.5170   34.7950   12.5520 N   0  0  0  0  0  0  0  0  0  0  0  0
   25.5680   35.4610   10.7220 N   0  0  0  0  0  0  0  0  0  0  0  0
   26.0870   34.4150   11.3750 N   0  0  0  0  0  0  0  0  0  0  0  0
   25.0060   35.3850    9.3970 C   0  0  0  0  0  0  0  0  0  0  0  0
   26.0140   35.7510    8.3660 C   0  0  0  0  0  0  0  0  0  0  0  0
   26.0020   37.0010    7.7570 C   0  0  0  0  0  0  0  0  0  0  0  0
   26.9960   34.8790    7.9670 C   0  0  0  0  0  0  0  0  0  0  0  0
   26.9350   37.3320    6.8060 C   0  0  0  0  0  0  0  0  0  0  0  0
   27.9410   35.2040    7.0090 C   0  0  0  0  0  0  0  0  0  0  0  0
   27.9160   36.4450    6.4160 C   0  0  0  0  0  0  0  0  0  0  0  0
   29.8670   25.5550   16.9770 C   0  0  0  0  0  0  0  0  0  0  0  0
   28.3450   25.7220   17.0260 C   0  0  0  0  0  0  0  0  0  0  0  0
   27.6010   24.4030   16.8880 C   0  0  0  0  0  0  0  0  0  0  0  0
   26.7430   24.1080   18.0870 C   0  0  0  0  0  0  0  0  0  0  0  0
   26.0460   25.3860   18.5410 C   0  0  0  0  0  0  0  0  0  0  0  0
   24.7800   25.5790   17.7950 N   0  0  0  0  0  0  0  0  0  0  0  0
  1  5  1  0  0  0  0
  2  3  2  0  0  0  0
  2  1  1  0  0  0  0
  4  1  1  0  0  0  0
  6  5  1  1  0  0  0
  6 29  1  0  0  0  0
  7 27  1  6  0  0  0
  7  6  1  0  0  0  0
  8  7  1  1  0  0  0
  9 16  1  6  0  0  0
  9 10  1  0  0  0  0
  9 11  1  0  0  0  0
 10 12  1  0  0  0  0
 11  8  1  0  0  0  0
 12 20  1  6  0  0  0
 12 13  1  0  0  0  0
 13  8  1  0  0  0  0
 13 22  1  1  0  0  0
 14  9  1  0  0  0  0
 14 15  1  0  0  0  0
 16 17  2  0  0  0  0
 18 16  1  0  0  0  0
 19 18  1  0  0  0  0
 21 20  1  0  0  0  0
 22 24  1  0  0  0  0
 22 23  1  0  0  0  0
 23 25  1  0  0  0  0
 26 23  2  0  0  0  0
 27 28  1  0  0  0  0
 29 30  1  0  0  0  0
 31  2  1  0  0  0  0
 32 31  1  0  0  0  0
 33 32  1  0  0  0  0
 34 33  2  0  0  0  0
 35 33  1  0  0  0  0
 36 37  1  0  0  0  0
 36 34  1  0  0  0  0
 37 35  2  0  0  0  0
 38 36  1  0  0  0  0
 39 38  1  0  0  0  0
 40 39  2  0  0  0  0
 41 39  1  0  0  0  0
 42 40  1  0  0  0  0
 43 41  2  0  0  0  0
 44 42  2  0  0  0  0
 44 43  1  0  0  0  0
 45 46  1  0  0  0  0
 47 46  1  0  0  0  0
 47 48  1  0  0  0  0
 48 49  1  0  0  0  0
 50 49  1  0  0  0  0
M  END
>  <REMARK>
 VINA RESULT:    -5.141      5.682      9.585
 INTER + INTRA:         -14.488
 INTER:                  -9.455
 INTRA:                  -5.033
 UNBOUND:                -5.290
 SMILES CC(=O)N[C@@H]1[C@@H](O)C[C@](O)(C(=O)O)O[C@H]1C(O)[C@H](O)CNC(=O)OCc1cn(Cc2ccccc2)nn1
 SMILES IDX 21 1 22 2 23 3 20 5 18 6 16 7 15 8 9 9 8 10 14 11 6 12 5 13
 SMILES IDX 10 14 11 16 12 17 13 18 7 20 4 22 2 23 1 25 3 26 17 27 19 29
 SMILES IDX 24 31 25 32 26 33 27 34 37 35 28 36 36 37 29 38 30 39 31 40
 SMILES IDX 35 41 32 42 34 43 33 44
 H PARENT 21 4 10 15 13 19 7 21 4 24 17 28 19 30
 Flexibility Score: inf
  4 active torsions:
  status: ('A' for Active; 'I' for Inactive)
    1  A    between atoms: CA   and  CB  
    2  A    between atoms: CB   and  CG  
    3  A    between atoms: CG   and  CD  
    4  A    between atoms: CD   and  CE  

>  <TORSDO>
F 16

>  <BEGIN_>
RES LYS A 131

$$$$
ligand_46_pose_17_2HRL.pdbqt
 OpenBabel07062320523D

  6  5  0  0  0  0  0  0  0  0999 V2000
   33.1930   34.6630    9.2900 C   0  0  0  0  0  0  0  0  0  0  0  0
   32.0600   35.3600   10.0340 C   0  0  0  0  0  0  0  0  0  0  0  0
   30.7990   35.4960    9.2210 C   0  0  0  0  0  0  0  0  0  0  0  0
   30.3100   36.9360    9.2240 C   0  0  0  0  0  0  0  0  0  0  0  0
   29.1050   37.0870   10.1320 C   0  0  0  0  0  0  0  0  0  0  0  0
   29.5190   37.1960   11.5590 N   0  0  0  0  0  0  0  0  0  0  0  0
  1  2  1  0  0  0  0
  3  4  1  0  0  0  0
  3  2  1  0  0  0  0
  4  5  1  0  0  0  0
  5  6  1  0  0  0  0
M  END
>  <EGIN_R>
ES LYS A 135

>  <REMARK>
  4 active torsions:
  status: ('A' for Active; 'I' for Inactive)
    5  A    between atoms: CA   and  CB  
    6  A    between atoms: CB   and  CG  
    7  A    between atoms: CG   and  CD  
    8  A    between atoms: CD   and  CE  

$$$$
