ligand_52_pose_17_2HRL.pdbqt
 OpenBabel07062320523D

 49 50  0  0  1  0  0  0  0  0999 V2000
   31.1720   37.3920   12.9690 C   0  0  0  0  0  0  0  0  0  0  0  0
   30.4100   37.0510   14.1960 C   0  0  2  0  0  0  0  0  0  0  0  0
   29.3340   36.0570   13.9770 C   0  0  2  0  0  0  0  0  0  0  0  0
   29.4000   34.7650   14.7150 C   0  0  2  0  0  0  0  0  0  0  0  0
   30.6750   33.0330   15.4300 C   0  0  2  0  0  0  0  0  0  0  0  0
   29.4620   32.2810   15.8470 C   0  0  0  0  0  0  0  0  0  0  0  0
   30.4980   34.0070   14.4660 O   0  0  0  0  0  0  0  0  0  0  0  0
   28.1680   33.0160   15.8170 C   0  0  1  0  0  0  0  0  0  0  0  0
   28.1440   33.9520   14.5750 C   0  0  1  0  0  0  0  0  0  0  0  0
   31.5280   32.0580   14.8190 O   0  0  0  0  0  0  0  0  0  0  0  0
   32.4000   32.5100   14.7550 H   0  0  0  0  0  0  0  0  0  0  0  0
   31.4480   33.5670   16.5740 C   0  0  0  0  0  0  0  0  0  0  0  0
   31.2140   33.1440   17.7340 O   0  0  0  0  0  0  0  0  0  0  0  0
   32.4440   34.5300   16.4750 O   0  0  0  0  0  0  0  0  0  0  0  0
   32.1450   35.4990   16.6330 H   0  0  0  0  0  0  0  0  0  0  0  0
   27.1000   32.1380   15.6250 O   0  0  0  0  0  0  0  0  0  0  0  0
   27.2230   31.6520   14.7730 H   0  0  0  0  0  0  0  0  0  0  0  0
   27.0090   34.8120   14.7760 N   0  0  0  0  0  0  0  0  0  0  0  0
   25.7770   34.6640   14.1010 C   0  0  0  0  0  0  0  0  0  0  0  0
   27.0860   35.6040   15.4680 H   0  0  0  0  0  0  0  0  0  0  0  0
   24.6660   35.6020   14.3790 C   0  0  0  0  0  0  0  0  0  0  0  0
   25.6370   33.7370   13.2720 O   0  0  0  0  0  0  0  0  0  0  0  0
   28.8930   35.9630   12.6710 O   0  0  0  0  0  0  0  0  0  0  0  0
   28.0510   35.5050   12.5260 H   0  0  0  0  0  0  0  0  0  0  0  0
   29.7740   38.2130   14.7000 O   0  0  0  0  0  0  0  0  0  0  0  0
   30.3930   38.9580   14.5630 H   0  0  0  0  0  0  0  0  0  0  0  0
   30.4840   38.1540   11.9700 N   0  0  0  0  0  0  0  0  0  0  0  0
   30.9300   38.4110   10.6790 C   0  0  0  0  0  0  0  0  0  0  0  0
   29.5360   38.5680   12.2290 H   0  0  0  0  0  0  0  0  0  0  0  0
   32.0200   37.9890   10.2710 O   0  0  0  0  0  0  0  0  0  0  0  0
   30.1880   39.1620    9.7500 O   0  0  0  0  0  0  0  0  0  0  0  0
   29.4590   38.5230    8.7270 C   0  0  0  0  0  0  0  0  0  0  0  0
   28.2230   37.9030    9.2400 C   0  0  0  0  0  0  0  0  0  0  0  0
   27.0530   37.8250    8.5010 C   0  0  0  0  0  0  0  0  0  0  0  0
   27.9460   37.3270   10.4090 N   0  0  0  0  0  0  0  0  0  0  0  0
   26.1170   37.2100    9.2430 N   0  0  0  0  0  0  0  0  0  0  0  0
   26.6700   36.9140   10.3910 N   0  0  0  0  0  0  0  0  0  0  0  0
   24.7660   36.9220    8.8650 C   0  0  0  0  0  0  0  0  0  0  0  0
   24.0670   35.8720    9.4340 C   0  0  0  0  0  0  0  0  0  0  0  0
   24.1370   37.6990    7.9150 C   0  0  0  0  0  0  0  0  0  0  0  0
   22.7510   35.6300    9.0330 C   0  0  0  0  0  0  0  0  0  0  0  0
   22.8520   37.4410    7.5420 N   0  0  0  0  0  0  0  0  0  0  0  0
   22.1480   36.4280    8.0780 C   0  0  0  0  0  0  0  0  0  0  0  0
   29.8670   25.5550   16.9770 C   0  0  0  0  0  0  0  0  0  0  0  0
   28.3450   25.7220   17.0260 C   0  0  0  0  0  0  0  0  0  0  0  0
   27.6010   24.4010   16.9030 C   0  0  0  0  0  0  0  0  0  0  0  0
   26.6600   24.1720   18.0530 C   0  0  0  0  0  0  0  0  0  0  0  0
   26.2820   25.5110   18.6760 C   0  0  0  0  0  0  0  0  0  0  0  0
   24.9120   25.9050   18.2680 N   0  0  0  0  0  0  0  0  0  0  0  0
  2  1  1  6  0  0  0
  2 25  1  0  0  0  0
  3 23  1  6  0  0  0
  3  2  1  0  0  0  0
  4  3  1  6  0  0  0
  5 10  1  6  0  0  0
  5  6  1  0  0  0  0
  5 12  1  0  0  0  0
  7  4  1  0  0  0  0
  7  5  1  0  0  0  0
  8 16  1  6  0  0  0
  8  6  1  0  0  0  0
  9  4  1  0  0  0  0
  9 18  1  1  0  0  0
  9  8  1  0  0  0  0
 11 10  1  0  0  0  0
 12 13  2  0  0  0  0
 14 12  1  0  0  0  0
 14 15  1  0  0  0  0
 17 16  1  0  0  0  0
 18 20  1  0  0  0  0
 19 21  1  0  0  0  0
 19 18  1  0  0  0  0
 22 19  2  0  0  0  0
 24 23  1  0  0  0  0
 26 25  1  0  0  0  0
 27 29  1  0  0  0  0
 27  1  1  0  0  0  0
 28 27  1  0  0  0  0
 30 28  2  0  0  0  0
 31 28  1  0  0  0  0
 32 33  1  0  0  0  0
 32 31  1  0  0  0  0
 33 35  1  0  0  0  0
 34 33  2  0  0  0  0
 34 36  1  0  0  0  0
 36 37  1  0  0  0  0
 37 35  2  0  0  0  0
 38 36  1  0  0  0  0
 38 39  2  0  0  0  0
 40 38  1  0  0  0  0
 41 39  1  0  0  0  0
 42 40  2  0  0  0  0
 42 43  1  0  0  0  0
 43 41  2  0  0  0  0
 44 45  1  0  0  0  0
 46 45  1  0  0  0  0
 46 47  1  0  0  0  0
 47 48  1  0  0  0  0
 49 48  1  0  0  0  0
M  END
>  <REMARK>
 VINA RESULT:    -4.754      4.531      9.199
 INTER + INTRA:         -13.392
 INTER:                  -7.976
 INTRA:                  -5.416
 UNBOUND:                -5.164
 SMILES CC(=O)N[C@@H]1[C@@H](O)C[C@](O)(C(=O)O)O[C@H]1C(O)[C@H](O)CNC(=O)OCc1cn(-c2cccnc2)nn1
 SMILES IDX 20 1 18 2 16 3 15 4 9 5 8 6 14 7 6 8 5 9 10 10 11 12 12 13
 SMILES IDX 13 14 7 16 4 18 2 19 1 21 3 22 17 23 19 25 21 27 22 28 23 30
 SMILES IDX 24 31 25 32 26 33 27 34 36 35 28 36 35 37 29 38 30 39 34 40
 SMILES IDX 31 41 33 42 32 43
 H PARENT 10 11 13 15 7 17 4 20 17 24 19 26 21 29
 Flexibility Score: inf
  4 active torsions:
  status: ('A' for Active; 'I' for Inactive)
    1  A    between atoms: CA   and  CB  
    2  A    between atoms: CB   and  CG  
    3  A    between atoms: CG   and  CD  
    4  A    between atoms: CD   and  CE  

>  <TORSDO>
F 15

>  <BEGIN_>
RES LYS A 131

$$$$
ligand_52_pose_17_2HRL.pdbqt
 OpenBabel07062320523D

  6  5  0  0  0  0  0  0  0  0999 V2000
   33.1930   34.6630    9.2900 C   0  0  0  0  0  0  0  0  0  0  0  0
   32.0600   35.3600   10.0340 C   0  0  0  0  0  0  0  0  0  0  0  0
   30.7310   34.6630    9.8970 C   0  0  0  0  0  0  0  0  0  0  0  0
   30.3330   34.5490    8.4340 C   0  0  0  0  0  0  0  0  0  0  0  0
   28.8240   34.4860    8.2960 C   0  0  0  0  0  0  0  0  0  0  0  0
   28.2040   33.8280    9.4800 N   0  0  0  0  0  0  0  0  0  0  0  0
  1  2  1  0  0  0  0
  3  2  1  0  0  0  0
  4  3  1  0  0  0  0
  5  4  1  0  0  0  0
  5  6  1  0  0  0  0
M  END
>  <EGIN_R>
ES LYS A 135

>  <REMARK>
  4 active torsions:
  status: ('A' for Active; 'I' for Inactive)
    5  A    between atoms: CA   and  CB  
    6  A    between atoms: CB   and  CG  
    7  A    between atoms: CG   and  CD  
    8  A    between atoms: CD   and  CE  

$$$$
