ligand_79_pose_12_2HRL.pdbqt
 OpenBabel07062320523D

 58 60  0  0  1  0  0  0  0  0999 V2000
   29.1960   40.6030   12.7360 N   0  0  0  0  0  0  0  0  0  0  0  0
   30.5830   40.7130   12.9970 C   0  0  0  0  0  0  0  0  0  0  0  0
   31.4050   40.7500   12.0780 O   0  0  0  0  0  0  0  0  0  0  0  0
   28.5700   40.5870   13.6100 H   0  0  0  0  0  0  0  0  0  0  0  0
   28.5850   40.5120   11.4390 C   0  0  0  0  0  0  0  0  0  0  0  0
   28.4140   39.1420   10.8950 C   0  0  2  0  0  0  0  0  0  0  0  0
   27.0930   38.4950   11.2810 C   0  0  1  0  0  0  0  0  0  0  0  0
   26.7430   37.3530   10.3610 C   0  0  2  0  0  0  0  0  0  0  0  0
   26.3230   37.9300    8.1560 C   0  0  2  0  0  0  0  0  0  0  0  0
   25.1650   36.9680    8.0000 C   0  0  0  0  0  0  0  0  0  0  0  0
   27.2430   37.4860    9.0970 O   0  0  0  0  0  0  0  0  0  0  0  0
   24.9950   36.0990    9.2280 C   0  0  1  0  0  0  0  0  0  0  0  0
   25.2690   37.0170   10.4210 C   0  0  1  0  0  0  0  0  0  0  0  0
   25.9050   39.2290    8.4430 O   0  0  0  0  0  0  0  0  0  0  0  0
   25.4660   39.2700    9.3400 H   0  0  0  0  0  0  0  0  0  0  0  0
   27.0270   37.9800    6.8470 C   0  0  0  0  0  0  0  0  0  0  0  0
   27.9670   38.8200    6.6760 O   0  0  0  0  0  0  0  0  0  0  0  0
   26.7180   37.1590    5.7880 O   0  0  0  0  0  0  0  0  0  0  0  0
   27.1560   36.2600    5.6350 H   0  0  0  0  0  0  0  0  0  0  0  0
   23.7450   35.5300    9.3040 O   0  0  0  0  0  0  0  0  0  0  0  0
   23.8190   34.6990    9.8710 H   0  0  0  0  0  0  0  0  0  0  0  0
   24.9680   36.3670   11.6670 N   0  0  0  0  0  0  0  0  0  0  0  0
   23.9550   36.8650   12.5620 C   0  0  0  0  0  0  0  0  0  0  0  0
   25.4590   35.5020   12.0020 H   0  0  0  0  0  0  0  0  0  0  0  0
   23.6190   36.2350   13.8390 C   0  0  0  0  0  0  0  0  0  0  0  0
   23.3430   37.9150   12.1820 O   0  0  0  0  0  0  0  0  0  0  0  0
   27.2800   38.0100   12.5780 O   0  0  0  0  0  0  0  0  0  0  0  0
   27.3590   37.0370   12.6140 H   0  0  0  0  0  0  0  0  0  0  0  0
   29.4100   38.3010   11.3530 O   0  0  0  0  0  0  0  0  0  0  0  0
   30.2600   38.8140   11.3520 H   0  0  0  0  0  0  0  0  0  0  0  0
   31.0860   40.7870   14.2980 O   0  0  0  0  0  0  0  0  0  0  0  0
   30.6550   39.8980   15.2860 C   0  0  0  0  0  0  0  0  0  0  0  0
   30.5140   38.5290   14.7270 C   0  0  0  0  0  0  0  0  0  0  0  0
   31.5480   37.7140   14.2910 C   0  0  0  0  0  0  0  0  0  0  0  0
   29.3980   37.7980   14.5280 N   0  0  0  0  0  0  0  0  0  0  0  0
   31.0390   36.5460   13.8520 N   0  0  0  0  0  0  0  0  0  0  0  0
   29.7300   36.6290   14.0090 N   0  0  0  0  0  0  0  0  0  0  0  0
   31.8110   35.4120   13.3080 C   0  0  0  0  0  0  0  0  0  0  0  0
   30.8770   34.4490   12.6620 C   0  0  0  0  0  0  0  0  0  0  0  0
   32.7260   36.0720   12.2580 C   0  0  0  0  0  0  0  0  0  0  0  0
   32.6460   34.8940   14.3890 C   0  0  0  0  0  0  0  0  0  0  0  0
   33.8930   34.6640   14.2060 O   0  0  0  0  0  0  0  0  0  0  0  0
   32.1790   34.5870   15.7360 C   0  0  0  0  0  0  0  0  0  0  0  0
   32.3500   35.4120   16.8460 C   0  0  0  0  0  0  0  0  0  0  0  0
   31.5330   33.4370   16.1110 C   0  0  0  0  0  0  0  0  0  0  0  0
   31.8120   34.7650   17.8780 N   0  0  0  0  0  0  0  0  0  0  0  0
   31.3100   33.5750   17.4850 C   0  0  0  0  0  0  0  0  0  0  0  0
   31.1000   32.2920   15.4490 C   0  0  0  0  0  0  0  0  0  0  0  0
   31.7760   35.1100   18.8480 H   0  0  0  0  0  0  0  0  0  0  0  0
   30.6580   32.5520   18.1440 C   0  0  0  0  0  0  0  0  0  0  0  0
   30.4590   31.3010   16.1330 C   0  0  0  0  0  0  0  0  0  0  0  0
   30.2390   31.4290   17.4730 C   0  0  0  0  0  0  0  0  0  0  0  0
   29.8670   25.5550   16.9770 C   0  0  0  0  0  0  0  0  0  0  0  0
   28.3450   25.7220   17.0260 C   0  0  0  0  0  0  0  0  0  0  0  0
   27.6010   24.4040   16.8780 C   0  0  0  0  0  0  0  0  0  0  0  0
   26.1620   24.5150   17.2990 C   0  0  0  0  0  0  0  0  0  0  0  0
   26.0890   25.0530   18.7250 C   0  0  0  0  0  0  0  0  0  0  0  0
   24.8360   25.8180   18.9270 N   0  0  0  0  0  0  0  0  0  0  0  0
  1  2  1  0  0  0  0
  1  4  1  0  0  0  0
  2 31  1  0  0  0  0
  3  2  2  0  0  0  0
  5  1  1  0  0  0  0
  6  7  1  0  0  0  0
  6 29  1  0  0  0  0
  6  5  1  1  0  0  0
  7 27  1  1  0  0  0
  8 13  1  0  0  0  0
  8  7  1  1  0  0  0
  9 16  1  6  0  0  0
  9 14  1  0  0  0  0
  9 11  1  0  0  0  0
 10  9  1  0  0  0  0
 10 12  1  0  0  0  0
 11  8  1  0  0  0  0
 12 20  1  1  0  0  0
 12 13  1  0  0  0  0
 13 22  1  1  0  0  0
 14 15  1  0  0  0  0
 17 16  2  0  0  0  0
 18 16  1  0  0  0  0
 19 18  1  0  0  0  0
 20 21  1  0  0  0  0
 22 24  1  0  0  0  0
 22 23  1  0  0  0  0
 23 25  1  0  0  0  0
 26 23  2  0  0  0  0
 27 28  1  0  0  0  0
 30 29  1  0  0  0  0
 31 32  1  0  0  0  0
 33 32  1  0  0  0  0
 34 33  2  0  0  0  0
 35 33  1  0  0  0  0
 36 37  1  0  0  0  0
 36 34  1  0  0  0  0
 37 35  2  0  0  0  0
 38 36  1  0  0  0  0
 38 41  1  0  0  0  0
 39 38  1  0  0  0  0
 40 38  1  0  0  0  0
 41 43  1  0  0  0  0
 42 41  2  0  0  0  0
 43 45  1  0  0  0  0
 43 44  2  0  0  0  0
 44 46  1  0  0  0  0
 45 47  1  0  0  0  0
 46 49  1  0  0  0  0
 47 46  1  0  0  0  0
 47 50  2  0  0  0  0
 48 45  2  0  0  0  0
 48 51  1  0  0  0  0
 51 52  2  0  0  0  0
 52 50  1  0  0  0  0
 53 54  1  0  0  0  0
 55 54  1  0  0  0  0
 55 56  1  0  0  0  0
 56 57  1  0  0  0  0
 57 58  1  0  0  0  0
M  END
>  <REMARK>
 VINA RESULT:    -5.988      2.327      4.461
 INTER + INTRA:         -15.841
 INTER:                  -9.508
 INTRA:                  -6.333
 UNBOUND:                -4.777
 SMILES CC(=O)N[C@@H]1[C@@H](O)C[C@](O)(C(=O)O)O[C@H]1C(O)[C@H](O)CNC(=O)OCc1cn(C(C)(C)C(=O)c2c[nH]c3ccccc23)nn1
 SMILES IDX 21 1 22 2 23 3 20 5 18 6 16 7 15 8 9 9 8 10 14 11 6 12 5 13
 SMILES IDX 10 14 11 16 12 17 13 18 7 20 4 22 2 23 1 25 3 26 17 27 19 29
 SMILES IDX 24 31 25 32 26 33 27 34 44 35 28 36 43 37 29 38 30 39 31 40
 SMILES IDX 32 41 33 42 34 43 35 44 42 45 36 46 37 47 41 48 38 50 40 51
 SMILES IDX 39 52
 H PARENT 21 4 10 15 13 19 7 21 4 24 17 28 19 30 36 49
 Flexibility Score: inf
  4 active torsions:
  status: ('A' for Active; 'I' for Inactive)
    1  A    between atoms: CA   and  CB  
    2  A    between atoms: CB   and  CG  
    3  A    between atoms: CG   and  CD  
    4  A    between atoms: CD   and  CE  

>  <TORSDO>
F 17

>  <BEGIN_>
RES LYS A 131

$$$$
ligand_79_pose_12_2HRL.pdbqt
 OpenBabel07062320523D

  6  5  0  0  0  0  0  0  0  0999 V2000
   33.1930   34.6630    9.2900 C   0  0  0  0  0  0  0  0  0  0  0  0
   32.0600   35.3600   10.0340 C   0  0  0  0  0  0  0  0  0  0  0  0
   30.9040   35.7460    9.1470 C   0  0  0  0  0  0  0  0  0  0  0  0
   30.3080   34.5170    8.4780 C   0  0  0  0  0  0  0  0  0  0  0  0
   29.1190   34.9030    7.6190 C   0  0  0  0  0  0  0  0  0  0  0  0
   27.8420   34.4530    8.2380 N   0  0  0  0  0  0  0  0  0  0  0  0
  1  2  1  0  0  0  0
  3  2  1  0  0  0  0
  4  3  1  0  0  0  0
  5  6  1  0  0  0  0
  5  4  1  0  0  0  0
M  END
>  <EGIN_R>
ES LYS A 135

>  <REMARK>
  4 active torsions:
  status: ('A' for Active; 'I' for Inactive)
    5  A    between atoms: CA   and  CB  
    6  A    between atoms: CB   and  CG  
    7  A    between atoms: CG   and  CD  
    8  A    between atoms: CD   and  CE  

$$$$
