ligand_49_pose_13_2HRL.pdbqt
 OpenBabel07062320523D

 48 49  0  0  1  0  0  0  0  0999 V2000
   27.9090   36.7900   13.2840 C   0  0  0  0  0  0  0  0  0  0  0  0
   28.3430   36.3620   11.9100 C   0  0  2  0  0  0  0  0  0  0  0  0
   27.3470   36.9650   10.9390 C   0  0  1  0  0  0  0  0  0  0  0  0
   27.4090   36.3320    9.5850 C   0  0  2  0  0  0  0  0  0  0  0  0
   28.9320   35.7770    7.9290 C   0  0  2  0  0  0  0  0  0  0  0  0
   27.6460   35.3010    7.2690 C   0  0  0  0  0  0  0  0  0  0  0  0
   28.5930   36.6520    8.9630 O   0  0  0  0  0  0  0  0  0  0  0  0
   26.6910   36.4770    7.2670 C   0  0  1  0  0  0  0  0  0  0  0  0
   26.2340   36.6630    8.7080 C   0  0  1  0  0  0  0  0  0  0  0  0
   29.6630   36.4320    6.9450 O   0  0  0  0  0  0  0  0  0  0  0  0
   29.6440   37.4120    7.1710 H   0  0  0  0  0  0  0  0  0  0  0  0
   29.7300   34.6610    8.4520 C   0  0  0  0  0  0  0  0  0  0  0  0
   29.2170   33.7670    9.1710 O   0  0  0  0  0  0  0  0  0  0  0  0
   31.0810   34.5610    8.1650 O   0  0  0  0  0  0  0  0  0  0  0  0
   31.4270   34.2040    7.2650 H   0  0  0  0  0  0  0  0  0  0  0  0
   27.4310   37.6010    6.8630 O   0  0  0  0  0  0  0  0  0  0  0  0
   28.3710   37.3000    6.7450 H   0  0  0  0  0  0  0  0  0  0  0  0
   25.1050   35.7880    8.9530 N   0  0  0  0  0  0  0  0  0  0  0  0
   23.8490   36.3120    9.3330 C   0  0  0  0  0  0  0  0  0  0  0  0
   25.2100   34.7630    8.8500 H   0  0  0  0  0  0  0  0  0  0  0  0
   22.6530   35.4760    9.5980 C   0  0  0  0  0  0  0  0  0  0  0  0
   23.7390   37.5540    9.4520 O   0  0  0  0  0  0  0  0  0  0  0  0
   26.0790   36.7170   11.4690 O   0  0  0  0  0  0  0  0  0  0  0  0
   26.0330   35.9100   12.0190 H   0  0  0  0  0  0  0  0  0  0  0  0
   28.3580   34.9930   11.7740 O   0  0  0  0  0  0  0  0  0  0  0  0
   29.0670   34.7340   11.1270 H   0  0  0  0  0  0  0  0  0  0  0  0
   27.5640   35.7370   14.1860 N   0  0  0  0  0  0  0  0  0  0  0  0
   26.2780   35.4250   14.6380 C   0  0  0  0  0  0  0  0  0  0  0  0
   28.3760   35.1380   14.5410 H   0  0  0  0  0  0  0  0  0  0  0  0
   25.2950   36.1010   14.2570 O   0  0  0  0  0  0  0  0  0  0  0  0
   26.0770   34.3490   15.5230 O   0  0  0  0  0  0  0  0  0  0  0  0
   25.8290   33.0770   14.9530 C   0  0  0  0  0  0  0  0  0  0  0  0
   26.8550   32.1360   15.4530 C   0  0  0  0  0  0  0  0  0  0  0  0
   28.1970   32.4650   15.5940 C   0  0  0  0  0  0  0  0  0  0  0  0
   26.7450   30.8740   15.8480 N   0  0  0  0  0  0  0  0  0  0  0  0
   28.8290   31.3900   16.0650 N   0  0  0  0  0  0  0  0  0  0  0  0
   27.9370   30.4300   16.2150 N   0  0  0  0  0  0  0  0  0  0  0  0
   30.2600   31.3510   16.3440 C   0  0  0  0  0  0  0  0  0  0  0  0
   30.9240   32.3670   15.4580 C   0  0  0  0  0  0  0  0  0  0  0  0
   30.4920   31.7880   17.7730 C   0  0  0  0  0  0  0  0  0  0  0  0
   31.6750   33.2960   16.3560 C   0  0  0  0  0  0  0  0  0  0  0  0
   30.9170   33.2400   17.6550 C   0  0  0  0  0  0  0  0  0  0  0  0
   29.8670   25.5550   16.9770 C   0  0  0  0  0  0  0  0  0  0  0  0
   28.3450   25.7220   17.0260 C   0  0  0  0  0  0  0  0  0  0  0  0
   27.6010   24.4010   16.9070 C   0  0  0  0  0  0  0  0  0  0  0  0
   26.5900   24.2180   18.0040 C   0  0  0  0  0  0  0  0  0  0  0  0
   25.9880   25.5710   18.3720 C   0  0  0  0  0  0  0  0  0  0  0  0
   25.8380   25.6900   19.8410 N   0  0  0  0  0  0  0  0  0  0  0  0
  1 27  1  0  0  0  0
  2  1  1  1  0  0  0
  3 23  1  1  0  0  0
  3  2  1  0  0  0  0
  4  3  1  1  0  0  0
  5 10  1  6  0  0  0
  5 12  1  0  0  0  0
  5  7  1  0  0  0  0
  6  5  1  0  0  0  0
  7  4  1  0  0  0  0
  8 16  1  1  0  0  0
  8  6  1  0  0  0  0
  8  9  1  0  0  0  0
  9 18  1  1  0  0  0
  9  4  1  0  0  0  0
 10 11  1  0  0  0  0
 12 13  2  0  0  0  0
 14 12  1  0  0  0  0
 15 14  1  0  0  0  0
 17 16  1  0  0  0  0
 18 19  1  0  0  0  0
 19 22  2  0  0  0  0
 19 21  1  0  0  0  0
 20 18  1  0  0  0  0
 23 24  1  0  0  0  0
 25  2  1  0  0  0  0
 26 25  1  0  0  0  0
 27 29  1  0  0  0  0
 27 28  1  0  0  0  0
 28 31  1  0  0  0  0
 30 28  2  0  0  0  0
 32 33  1  0  0  0  0
 32 31  1  0  0  0  0
 33 34  2  0  0  0  0
 33 35  1  0  0  0  0
 34 36  1  0  0  0  0
 35 37  2  0  0  0  0
 36 37  1  0  0  0  0
 36 38  1  0  0  0  0
 38 40  1  0  0  0  0
 39 38  1  0  0  0  0
 39 41  1  0  0  0  0
 41 42  1  0  0  0  0
 42 40  1  0  0  0  0
 43 44  1  0  0  0  0
 45 44  1  0  0  0  0
 45 46  1  0  0  0  0
 46 47  1  0  0  0  0
 47 48  1  0  0  0  0
M  END
>  <REMARK>
 VINA RESULT:    -4.901      3.192      7.025
 INTER + INTRA:         -13.508
 INTER:                  -9.765
 INTRA:                  -3.743
 UNBOUND:                -5.026
 SMILES CC(=O)N[C@@H]1[C@@H](O)C[C@](O)(C(=O)O)O[C@H]1C(O)[C@H](O)CNC(=O)OCc1cn(C2CCCC2)nn1
 SMILES IDX 20 1 18 2 16 3 15 4 9 5 8 6 14 7 6 8 5 9 10 10 11 12 12 13
 SMILES IDX 13 14 7 16 4 18 2 19 1 21 3 22 17 23 19 25 21 27 22 28 23 30
 SMILES IDX 24 31 25 32 26 33 27 34 35 35 28 36 34 37 29 38 30 39 33 40
 SMILES IDX 31 41 32 42
 H PARENT 10 11 13 15 7 17 4 20 17 24 19 26 21 29
 Flexibility Score: inf
  4 active torsions:
  status: ('A' for Active; 'I' for Inactive)
    1  A    between atoms: CA   and  CB  
    2  A    between atoms: CB   and  CG  
    3  A    between atoms: CG   and  CD  
    4  A    between atoms: CD   and  CE  

>  <TORSDO>
F 15

>  <BEGIN_>
RES LYS A 131

$$$$
ligand_49_pose_13_2HRL.pdbqt
 OpenBabel07062320523D

  6  5  0  0  0  0  0  0  0  0999 V2000
   33.1930   34.6630    9.2900 C   0  0  0  0  0  0  0  0  0  0  0  0
   32.0600   35.3600   10.0340 C   0  0  0  0  0  0  0  0  0  0  0  0
   32.5280   36.2020   11.1920 C   0  0  0  0  0  0  0  0  0  0  0  0
   32.1180   35.5720   12.5150 C   0  0  0  0  0  0  0  0  0  0  0  0
   31.7280   36.6420   13.5160 C   0  0  0  0  0  0  0  0  0  0  0  0
   31.4740   37.9440   12.8390 N   0  0  0  0  0  0  0  0  0  0  0  0
  1  2  1  0  0  0  0
  2  3  1  0  0  0  0
  3  4  1  0  0  0  0
  4  5  1  0  0  0  0
  6  5  1  0  0  0  0
M  END
>  <EGIN_R>
ES LYS A 135

>  <REMARK>
  4 active torsions:
  status: ('A' for Active; 'I' for Inactive)
    5  A    between atoms: CA   and  CB  
    6  A    between atoms: CB   and  CG  
    7  A    between atoms: CG   and  CD  
    8  A    between atoms: CD   and  CE  

$$$$
