ligand_58_pose_18_2HRL.pdbqt
 OpenBabel07062320523D

 56 58  0  0  1  0  0  0  0  0999 V2000
   31.3550   36.0190   16.1520 N   0  0  0  0  0  0  0  0  0  0  0  0
   32.2340   36.8040   15.3740 C   0  0  0  0  0  0  0  0  0  0  0  0
   33.0600   37.5650   15.9310 O   0  0  0  0  0  0  0  0  0  0  0  0
   30.6800   35.4000   15.6600 H   0  0  0  0  0  0  0  0  0  0  0  0
   31.3800   36.0590   17.5800 C   0  0  0  0  0  0  0  0  0  0  0  0
   31.4910   34.6300   18.1110 C   0  0  2  0  0  0  0  0  0  0  0  0
   30.6040   33.7890   17.2060 C   0  0  2  0  0  0  0  0  0  0  0  0
   29.4280   33.1520   17.8910 C   0  0  2  0  0  0  0  0  0  0  0  0
   28.4900   31.9550   16.0940 C   0  0  2  0  0  0  0  0  0  0  0  0
   27.3170   32.9080   16.0320 C   0  0  0  0  0  0  0  0  0  0  0  0
   29.1930   31.9510   17.2500 O   0  0  0  0  0  0  0  0  0  0  0  0
   27.6290   34.2560   16.6090 C   0  0  1  0  0  0  0  0  0  0  0  0
   28.2470   34.0360   17.9570 C   0  0  1  0  0  0  0  0  0  0  0  0
   29.3420   32.3450   15.0580 O   0  0  0  0  0  0  0  0  0  0  0  0
   29.3290   33.3430   15.0400 H   0  0  0  0  0  0  0  0  0  0  0  0
   27.9940   30.5750   15.7390 C   0  0  0  0  0  0  0  0  0  0  0  0
   26.7910   30.2990   15.7440 O   0  0  0  0  0  0  0  0  0  0  0  0
   28.9230   29.6180   15.4030 O   0  0  0  0  0  0  0  0  0  0  0  0
   28.6000   28.7300   15.0010 H   0  0  0  0  0  0  0  0  0  0  0  0
   28.4160   34.9360   15.7240 O   0  0  0  0  0  0  0  0  0  0  0  0
   28.3570   34.5490   14.8080 H   0  0  0  0  0  0  0  0  0  0  0  0
   27.1970   33.4550   18.8170 N   0  0  0  0  0  0  0  0  0  0  0  0
   27.2080   33.6000   20.2150 C   0  0  0  0  0  0  0  0  0  0  0  0
   26.4300   32.9200   18.3560 H   0  0  0  0  0  0  0  0  0  0  0  0
   26.1310   32.9980   21.0440 C   0  0  0  0  0  0  0  0  0  0  0  0
   28.1320   34.2430   20.7840 O   0  0  0  0  0  0  0  0  0  0  0  0
   31.4690   32.7240   16.7580 O   0  0  0  0  0  0  0  0  0  0  0  0
   31.1700   31.8690   17.1040 H   0  0  0  0  0  0  0  0  0  0  0  0
   31.0150   34.6850   19.4130 O   0  0  0  0  0  0  0  0  0  0  0  0
   30.0580   34.5030   19.4840 H   0  0  0  0  0  0  0  0  0  0  0  0
   32.2170   36.7650   13.9850 O   0  0  0  0  0  0  0  0  0  0  0  0
   31.0830   37.2330   13.3080 C   0  0  0  0  0  0  0  0  0  0  0  0
   30.1820   36.0870   13.0240 C   0  0  0  0  0  0  0  0  0  0  0  0
   28.9760   36.1650   12.3210 C   0  0  0  0  0  0  0  0  0  0  0  0
   30.2920   34.7880   13.3500 N   0  0  0  0  0  0  0  0  0  0  0  0
   28.4310   34.9470   12.2590 N   0  0  0  0  0  0  0  0  0  0  0  0
   29.2370   34.1300   12.8840 N   0  0  0  0  0  0  0  0  0  0  0  0
   27.1790   34.5580   11.6270 C   0  0  0  0  0  0  0  0  0  0  0  0
   26.0440   34.7170   12.5370 C   0  0  0  0  0  0  0  0  0  0  0  0
   25.9900   35.7440   13.4870 C   0  0  0  0  0  0  0  0  0  0  0  0
   24.9730   33.8490   12.4620 C   0  0  0  0  0  0  0  0  0  0  0  0
   24.9010   35.8800   14.3190 C   0  0  0  0  0  0  0  0  0  0  0  0
   23.8930   34.0070   13.3080 C   0  0  0  0  0  0  0  0  0  0  0  0
   23.8280   35.0150   14.2480 C   0  0  0  0  0  0  0  0  0  0  0  0
   27.0110   35.1030   10.2780 C   0  0  0  0  0  0  0  0  0  0  0  0
   27.2480   34.2970    9.1500 C   0  0  0  0  0  0  0  0  0  0  0  0
   26.6130   36.4050   10.0910 C   0  0  0  0  0  0  0  0  0  0  0  0
   27.0850   34.8000    7.8850 C   0  0  0  0  0  0  0  0  0  0  0  0
   26.4500   36.9070    8.7960 C   0  0  0  0  0  0  0  0  0  0  0  0
   26.6850   36.1060    7.7030 C   0  0  0  0  0  0  0  0  0  0  0  0
   29.8670   25.5550   16.9770 C   0  0  0  0  0  0  0  0  0  0  0  0
   28.3450   25.7220   17.0260 C   0  0  0  0  0  0  0  0  0  0  0  0
   27.5990   24.4550   16.6360 C   0  0  0  0  0  0  0  0  0  0  0  0
   27.0910   23.7050   17.8370 C   0  0  0  0  0  0  0  0  0  0  0  0
   25.6220   23.3500   17.6310 C   0  0  0  0  0  0  0  0  0  0  0  0
   25.0020   22.9430   18.9140 N   0  0  0  0  0  0  0  0  0  0  0  0
  1  5  1  0  0  0  0
  2  3  2  0  0  0  0
  2  1  1  0  0  0  0
  4  1  1  0  0  0  0
  6  5  1  6  0  0  0
  6 29  1  0  0  0  0
  7 27  1  1  0  0  0
  7  6  1  0  0  0  0
  8  7  1  6  0  0  0
  8 13  1  0  0  0  0
  9 14  1  6  0  0  0
  9 11  1  0  0  0  0
 10  9  1  0  0  0  0
 10 12  1  0  0  0  0
 11  8  1  0  0  0  0
 12 20  1  6  0  0  0
 12 13  1  0  0  0  0
 13 22  1  1  0  0  0
 15 14  1  0  0  0  0
 16 17  2  0  0  0  0
 16  9  1  0  0  0  0
 18 16  1  0  0  0  0
 19 18  1  0  0  0  0
 21 20  1  0  0  0  0
 22 23  1  0  0  0  0
 23 26  2  0  0  0  0
 23 25  1  0  0  0  0
 24 22  1  0  0  0  0
 27 28  1  0  0  0  0
 29 30  1  0  0  0  0
 31  2  1  0  0  0  0
 32 31  1  0  0  0  0
 33 32  1  0  0  0  0
 33 35  1  0  0  0  0
 34 33  2  0  0  0  0
 36 34  1  0  0  0  0
 36 37  1  0  0  0  0
 37 35  2  0  0  0  0
 38 36  1  0  0  0  0
 38 39  1  0  0  0  0
 39 40  1  0  0  0  0
 40 42  2  0  0  0  0
 41 39  2  0  0  0  0
 41 43  1  0  0  0  0
 43 44  2  0  0  0  0
 44 42  1  0  0  0  0
 45 38  1  0  0  0  0
 46 45  2  0  0  0  0
 47 45  1  0  0  0  0
 48 46  1  0  0  0  0
 49 47  2  0  0  0  0
 50 48  2  0  0  0  0
 50 49  1  0  0  0  0
 51 52  1  0  0  0  0
 53 52  1  0  0  0  0
 53 54  1  0  0  0  0
 55 54  1  0  0  0  0
 55 56  1  0  0  0  0
M  END
>  <REMARK>
 VINA RESULT:    -5.437      2.474      4.150
 INTER + INTRA:         -15.536
 INTER:                  -9.017
 INTRA:                  -6.519
 UNBOUND:                -5.490
 SMILES CC(=O)N[C@@H]1[C@@H](O)C[C@](O)(C(=O)O)O[C@H]1C(O)[C@H](O)CNC(=O)OCc1cn(C(c2ccccc2)c2ccccc2)nn1
 SMILES IDX 21 1 22 2 23 3 20 5 18 6 16 7 15 8 9 9 8 10 14 11 6 12 5 13
 SMILES IDX 10 14 11 16 12 17 13 18 7 20 4 22 2 23 1 25 3 26 17 27 19 29
 SMILES IDX 24 31 25 32 26 33 27 34 43 35 28 36 42 37 29 38 30 39 31 40
 SMILES IDX 35 41 32 42 34 43 33 44 36 45 37 46 41 47 38 48 40 49 39 50
 H PARENT 21 4 10 15 13 19 7 21 4 24 17 28 19 30
 Flexibility Score: inf
  4 active torsions:
  status: ('A' for Active; 'I' for Inactive)
    1  A    between atoms: CA   and  CB  
    2  A    between atoms: CB   and  CG  
    3  A    between atoms: CG   and  CD  
    4  A    between atoms: CD   and  CE  

>  <TORSDO>
F 17

>  <BEGIN_>
RES LYS A 131

$$$$
ligand_58_pose_18_2HRL.pdbqt
 OpenBabel07062320523D

  6  5  0  0  0  0  0  0  0  0999 V2000
   33.1930   34.6630    9.2900 C   0  0  0  0  0  0  0  0  0  0  0  0
   32.0600   35.3600   10.0340 C   0  0  0  0  0  0  0  0  0  0  0  0
   30.7170   35.2030    9.3690 C   0  0  0  0  0  0  0  0  0  0  0  0
   30.3050   36.4950    8.6790 C   0  0  0  0  0  0  0  0  0  0  0  0
   30.8270   37.6960    9.4440 C   0  0  0  0  0  0  0  0  0  0  0  0
   31.1480   38.8200    8.5210 N   0  0  0  0  0  0  0  0  0  0  0  0
  1  2  1  0  0  0  0
  3  2  1  0  0  0  0
  4  3  1  0  0  0  0
  4  5  1  0  0  0  0
  6  5  1  0  0  0  0
M  END
>  <EGIN_R>
ES LYS A 135

>  <REMARK>
  4 active torsions:
  status: ('A' for Active; 'I' for Inactive)
    5  A    between atoms: CA   and  CB  
    6  A    between atoms: CB   and  CG  
    7  A    between atoms: CG   and  CD  
    8  A    between atoms: CD   and  CE  

$$$$
