ligand_68_pose_10_2HRL.pdbqt
 OpenBabel07062320523D

 53 54  0  0  1  0  0  0  0  0999 V2000
   30.6730   27.9460   22.4670 N   0  0  0  0  0  0  0  0  0  0  0  0
   31.7500   28.1490   21.5690 C   0  0  0  0  0  0  0  0  0  0  0  0
   31.8040   27.4590   20.5260 O   0  0  0  0  0  0  0  0  0  0  0  0
   30.7000   28.5760   23.3280 H   0  0  0  0  0  0  0  0  0  0  0  0
   29.6100   26.9850   22.2800 C   0  0  0  0  0  0  0  0  0  0  0  0
   28.2800   27.6520   21.9990 C   0  0  2  0  0  0  0  0  0  0  0  0
   28.1210   27.9020   20.4980 C   0  0  2  0  0  0  0  0  0  0  0  0
   26.7440   27.5920   19.9730 C   0  0  2  0  0  0  0  0  0  0  0  0
   26.8660   29.0500   18.1470 C   0  0  2  0  0  0  0  0  0  0  0  0
   26.5700   30.1660   19.0660 C   0  0  0  0  0  0  0  0  0  0  0  0
   26.7630   27.7750   18.5890 O   0  0  0  0  0  0  0  0  0  0  0  0
   25.7690   29.8550   20.2920 C   0  0  1  0  0  0  0  0  0  0  0  0
   25.6940   28.3850   20.6260 C   0  0  1  0  0  0  0  0  0  0  0  0
   28.2290   29.2130   17.7570 O   0  0  0  0  0  0  0  0  0  0  0  0
   28.7130   28.4860   18.2050 H   0  0  0  0  0  0  0  0  0  0  0  0
   26.0970   29.2710   16.8650 C   0  0  0  0  0  0  0  0  0  0  0  0
   24.9420   28.8150   16.6930 O   0  0  0  0  0  0  0  0  0  0  0  0
   26.6740   30.0010   15.8310 O   0  0  0  0  0  0  0  0  0  0  0  0
   26.6470   29.7160   14.8640 H   0  0  0  0  0  0  0  0  0  0  0  0
   26.2950   30.5820   21.3980 O   0  0  0  0  0  0  0  0  0  0  0  0
   25.6390   30.5060   22.1160 H   0  0  0  0  0  0  0  0  0  0  0  0
   24.3410   27.9700   20.2880 N   0  0  0  0  0  0  0  0  0  0  0  0
   23.5790   27.0540   21.0520 C   0  0  0  0  0  0  0  0  0  0  0  0
   23.9470   28.3990   19.4220 H   0  0  0  0  0  0  0  0  0  0  0  0
   22.2010   26.6520   20.6790 C   0  0  0  0  0  0  0  0  0  0  0  0
   24.1430   26.5920   22.0790 O   0  0  0  0  0  0  0  0  0  0  0  0
   28.9880   26.8830   19.9440 O   0  0  0  0  0  0  0  0  0  0  0  0
   29.5740   27.2540   19.2670 H   0  0  0  0  0  0  0  0  0  0  0  0
   28.1860   28.7980   22.7530 O   0  0  0  0  0  0  0  0  0  0  0  0
   27.7940   28.5550   23.6240 H   0  0  0  0  0  0  0  0  0  0  0  0
   32.7530   29.0820   21.7890 O   0  0  0  0  0  0  0  0  0  0  0  0
   32.4860   30.3930   22.2470 C   0  0  0  0  0  0  0  0  0  0  0  0
   31.2810   30.9000   21.5590 C   0  0  0  0  0  0  0  0  0  0  0  0
   31.2330   31.4610   20.2920 C   0  0  0  0  0  0  0  0  0  0  0  0
   29.9980   30.9320   21.9890 N   0  0  0  0  0  0  0  0  0  0  0  0
   29.9660   31.8060   20.0020 N   0  0  0  0  0  0  0  0  0  0  0  0
   29.2450   31.4740   21.0450 N   0  0  0  0  0  0  0  0  0  0  0  0
   29.5210   32.4280   18.7470 C   0  0  0  0  0  0  0  0  0  0  0  0
   30.3360   31.8650   17.6090 C   0  0  1  0  0  0  0  0  0  0  0  0
   29.4190   31.3770   16.6510 O   0  0  0  0  0  0  0  0  0  0  0  0
   28.7300   32.0750   16.4780 H   0  0  0  0  0  0  0  0  0  0  0  0
   31.1200   32.9430   16.9730 C   0  0  0  0  0  0  0  0  0  0  0  0
   31.5170   34.0760   17.6550 C   0  0  0  0  0  0  0  0  0  0  0  0
   31.4780   32.8130   15.6250 C   0  0  0  0  0  0  0  0  0  0  0  0
   32.2470   35.0660   17.0450 C   0  0  0  0  0  0  0  0  0  0  0  0
   32.2040   33.7970   15.0170 C   0  0  0  0  0  0  0  0  0  0  0  0
   32.5860   34.9160   15.7210 C   0  0  0  0  0  0  0  0  0  0  0  0
   29.8670   25.5550   16.9770 C   0  0  0  0  0  0  0  0  0  0  0  0
   28.3450   25.7220   17.0260 C   0  0  0  0  0  0  0  0  0  0  0  0
   27.6010   24.4010   16.9070 C   0  0  0  0  0  0  0  0  0  0  0  0
   26.5580   24.2390   17.9770 C   0  0  0  0  0  0  0  0  0  0  0  0
   25.1730   24.2180   17.3380 C   0  0  0  0  0  0  0  0  0  0  0  0
   24.4350   25.4630   17.6570 N   0  0  0  0  0  0  0  0  0  0  0  0
  1  4  1  0  0  0  0
  2 31  1  0  0  0  0
  2  1  1  0  0  0  0
  3  2  2  0  0  0  0
  5  1  1  0  0  0  0
  6  5  1  6  0  0  0
  6 29  1  0  0  0  0
  7 27  1  6  0  0  0
  7  6  1  0  0  0  0
  8  7  1  1  0  0  0
  8 13  1  0  0  0  0
  9 16  1  6  0  0  0
  9 11  1  0  0  0  0
  9 10  1  0  0  0  0
 10 12  1  0  0  0  0
 11  8  1  0  0  0  0
 12 13  1  0  0  0  0
 12 20  1  1  0  0  0
 13 22  1  6  0  0  0
 14  9  1  0  0  0  0
 14 15  1  0  0  0  0
 17 16  2  0  0  0  0
 18 16  1  0  0  0  0
 19 18  1  0  0  0  0
 20 21  1  0  0  0  0
 22 23  1  0  0  0  0
 23 26  2  0  0  0  0
 24 22  1  0  0  0  0
 25 23  1  0  0  0  0
 28 27  1  0  0  0  0
 29 30  1  0  0  0  0
 31 32  1  0  0  0  0
 33 35  1  0  0  0  0
 33 32  1  0  0  0  0
 34 33  2  0  0  0  0
 36 34  1  0  0  0  0
 36 37  1  0  0  0  0
 37 35  2  0  0  0  0
 38 36  1  0  0  0  0
 39 38  1  1  0  0  0
 40 39  1  0  0  0  0
 41 40  1  0  0  0  0
 42 39  1  0  0  0  0
 42 43  2  0  0  0  0
 44 42  1  0  0  0  0
 45 43  1  0  0  0  0
 46 44  2  0  0  0  0
 46 47  1  0  0  0  0
 47 45  2  0  0  0  0
 48 49  1  0  0  0  0
 50 49  1  0  0  0  0
 50 51  1  0  0  0  0
 52 53  1  0  0  0  0
 52 51  1  0  0  0  0
M  END
>  <REMARK>
 VINA RESULT:    -5.473      2.066      5.433
 INTER + INTRA:         -15.285
 INTER:                  -8.399
 INTRA:                  -6.886
 UNBOUND:                -5.012
 SMILES CC(=O)N[C@@H]1[C@@H](O)C[C@](O)(C(=O)O)O[C@H]1C(O)[C@H](O)CNC(=O)OCc1cn(CC(O)c2ccccc2)nn1
 SMILES IDX 21 1 22 2 23 3 20 5 18 6 16 7 15 8 9 9 8 10 14 11 6 12 5 13
 SMILES IDX 10 14 11 16 12 17 13 18 7 20 4 22 2 23 1 25 3 26 17 27 19 29
 SMILES IDX 24 31 25 32 26 33 27 34 39 35 28 36 38 37 29 38 30 39 31 40
 SMILES IDX 32 42 33 43 37 44 34 45 36 46 35 47
 H PARENT 21 4 10 15 13 19 7 21 4 24 17 28 19 30 31 41
 Flexibility Score: inf
  4 active torsions:
  status: ('A' for Active; 'I' for Inactive)
    1  A    between atoms: CA   and  CB  
    2  A    between atoms: CB   and  CG  
    3  A    between atoms: CG   and  CD  
    4  A    between atoms: CD   and  CE  

>  <TORSDO>
F 18

>  <BEGIN_>
RES LYS A 131

$$$$
ligand_68_pose_10_2HRL.pdbqt
 OpenBabel07062320523D

  6  5  0  0  0  0  0  0  0  0999 V2000
   33.1930   34.6630    9.2900 C   0  0  0  0  0  0  0  0  0  0  0  0
   32.0600   35.3600   10.0340 C   0  0  0  0  0  0  0  0  0  0  0  0
   30.8250   35.5660    9.1950 C   0  0  0  0  0  0  0  0  0  0  0  0
   30.0670   34.2590    9.0250 C   0  0  0  0  0  0  0  0  0  0  0  0
   28.7570   34.4940    8.2980 C   0  0  0  0  0  0  0  0  0  0  0  0
   27.7020   34.9730    9.2340 N   0  0  0  0  0  0  0  0  0  0  0  0
  1  2  1  0  0  0  0
  3  2  1  0  0  0  0
  4  3  1  0  0  0  0
  5  4  1  0  0  0  0
  5  6  1  0  0  0  0
M  END
>  <EGIN_R>
ES LYS A 135

>  <REMARK>
  4 active torsions:
  status: ('A' for Active; 'I' for Inactive)
    5  A    between atoms: CA   and  CB  
    6  A    between atoms: CB   and  CG  
    7  A    between atoms: CG   and  CD  
    8  A    between atoms: CD   and  CE  

$$$$
