ligand_80_pose_14_2HRL.pdbqt
 OpenBabel07062320523D

 56 54  0  0  1  0  0  0  0  0999 V2000
   22.8070   38.1350    8.1770 O   0  0  0  0  0  0  0  0  0  0  0  0
   21.4810   37.9450    8.4800 C   0  0  0  0  0  0  0  0  0  0  0  0
   20.6190   37.2760    7.5470 N   0  0  0  0  0  0  0  0  0  0  0  0
   21.0660   36.9570    6.6560 H   0  0  0  0  0  0  0  0  0  0  0  0
   20.9760   38.3400    9.5610 O   0  0  0  0  0  0  0  0  0  0  0  0
   19.2120   37.0570    7.8260 C   0  0  0  0  0  0  0  0  0  0  0  0
   18.9810   35.5720    7.9630 C   0  0  2  0  0  0  0  0  0  0  0  0
   19.2040   35.0790    9.3770 C   0  0  2  0  0  0  0  0  0  0  0  0
   18.2490   33.9190    9.6990 C   0  0  2  0  0  0  0  0  0  0  0  0
   16.8910   32.4830    8.4350 C   0  0  2  0  0  0  0  0  0  0  0  0
   15.9590   32.5030    9.6060 C   0  0  0  0  0  0  0  0  0  0  0  0
   18.0050   33.2690    8.5520 O   0  0  0  0  0  0  0  0  0  0  0  0
   15.7520   33.9670    9.9580 C   0  0  1  0  0  0  0  0  0  0  0  0
   17.0810   34.5150   10.4140 C   0  0  1  0  0  0  0  0  0  0  0  0
   16.1910   32.9740    7.3130 O   0  0  0  0  0  0  0  0  0  0  0  0
   16.1580   33.9570    7.4420 H   0  0  0  0  0  0  0  0  0  0  0  0
   17.3400   31.1100    8.0930 C   0  0  0  0  0  0  0  0  0  0  0  0
   17.2680   30.2090    8.9550 O   0  0  0  0  0  0  0  0  0  0  0  0
   17.8410   30.7840    6.8350 O   0  0  0  0  0  0  0  0  0  0  0  0
   18.7120   31.2600    6.5570 H   0  0  0  0  0  0  0  0  0  0  0  0
   15.3760   34.6210    8.7900 O   0  0  0  0  0  0  0  0  0  0  0  0
   14.4710   34.3050    8.5500 H   0  0  0  0  0  0  0  0  0  0  0  0
   17.2090   34.1900   11.8230 N   0  0  0  0  0  0  0  0  0  0  0  0
   18.0840   33.1890   12.3210 C   0  0  0  0  0  0  0  0  0  0  0  0
   16.6160   34.7290   12.5270 H   0  0  0  0  0  0  0  0  0  0  0  0
   18.1260   32.9460   13.7820 C   0  0  0  0  0  0  0  0  0  0  0  0
   18.7890   32.5460   11.4980 O   0  0  0  0  0  0  0  0  0  0  0  0
   18.8810   36.1460   10.2220 O   0  0  0  0  0  0  0  0  0  0  0  0
   18.5790   36.9460    9.7410 H   0  0  0  0  0  0  0  0  0  0  0  0
   19.7590   34.8540    7.0630 O   0  0  0  0  0  0  0  0  0  0  0  0
   20.5430   34.4420    7.4820 H   0  0  0  0  0  0  0  0  0  0  0  0
   23.7740   37.1200    8.3900 C   0  0  0  0  0  0  0  0  0  0  0  0
   23.8740   36.7670    9.8290 C   0  0  0  0  0  0  0  0  0  0  0  0
   23.5350   35.5190   10.3620 C   0  0  0  0  0  0  0  0  0  0  0  0
   24.2780   37.4990   10.8830 N   0  0  0  0  0  0  0  0  0  0  0  0
   23.7400   35.5430   11.6890 N   0  0  0  0  0  0  0  0  0  0  0  0
   24.1870   36.7480   11.9660 N   0  0  0  0  0  0  0  0  0  0  0  0
   23.5060   34.4630   12.6230 *   0  0  0  0  0  0  0  0  0  0  0  0
   22.1190   33.9330   12.5040 C   0  0  0  0  0  0  0  0  0  0  0  0
   21.6100   32.6170   12.3930 N   0  0  0  0  0  0  0  0  0  0  0  0
   21.2590   34.8490   12.5050 O   0  0  0  0  0  0  0  0  0  0  0  0
   20.6300   32.4800   12.0650 H   0  0  0  0  0  0  0  0  0  0  0  0
   22.3010   31.3880   12.6870 C   0  0  0  0  0  0  0  0  0  0  0  0
   23.5840   31.2490   13.1830 C   0  0  0  0  0  0  0  0  0  0  0  0
   21.4990   30.2990   12.4070 C   0  0  0  0  0  0  0  0  0  0  0  0
   24.0610   29.9940   13.3980 C   0  0  0  0  0  0  0  0  0  0  0  0
   21.9850   29.0280   12.6270 C   0  0  0  0  0  0  0  0  0  0  0  0
   23.2630   28.8910   13.1210 C   0  0  0  0  0  0  0  0  0  0  0  0
   24.5310   32.3460   13.5190 C   0  0  0  0  0  0  0  0  0  0  0  0
   24.5840   33.4140   12.4390 *   0  0  0  0  0  0  0  0  0  0  0  0
   29.8670   25.5550   16.9770 C   0  0  0  0  0  0  0  0  0  0  0  0
   28.3450   25.7220   17.0260 C   0  0  0  0  0  0  0  0  0  0  0  0
   27.6020   24.3970   16.9440 C   0  0  0  0  0  0  0  0  0  0  0  0
   26.1510   24.5380   17.3100 C   0  0  0  0  0  0  0  0  0  0  0  0
   25.7290   23.3580   18.1800 C   0  0  0  0  0  0  0  0  0  0  0  0
   25.4270   22.1750   17.3400 N   0  0  0  0  0  0  0  0  0  0  0  0
  1 32  1  0  0  0  0
  1  2  1  0  0  0  0
  2  5  2  0  0  0  0
  3  6  1  0  0  0  0
  3  2  1  0  0  0  0
  4  3  1  0  0  0  0
  7  6  1  1  0  0  0
  7  8  1  0  0  0  0
  8 28  1  1  0  0  0
  9  8  1  6  0  0  0
  9 14  1  0  0  0  0
 10 15  1  6  0  0  0
 10 12  1  0  0  0  0
 10 11  1  0  0  0  0
 11 13  1  0  0  0  0
 12  9  1  0  0  0  0
 13 21  1  6  0  0  0
 13 14  1  0  0  0  0
 14 23  1  1  0  0  0
 15 16  1  0  0  0  0
 17 10  1  0  0  0  0
 17 18  2  0  0  0  0
 19 17  1  0  0  0  0
 20 19  1  0  0  0  0
 22 21  1  0  0  0  0
 23 24  1  0  0  0  0
 23 25  1  0  0  0  0
 24 26  1  0  0  0  0
 27 24  2  0  0  0  0
 29 28  1  0  0  0  0
 30 31  1  0  0  0  0
 30  7  1  0  0  0  0
 32 33  1  0  0  0  0
 33 34  2  0  0  0  0
 33 35  1  0  0  0  0
 34 36  1  0  0  0  0
 35 37  1  0  0  0  0
 36 37  2  0  0  0  0
 39 41  2  0  0  0  0
 40 39  1  0  0  0  0
 40 43  1  0  0  0  0
 42 40  1  0  0  0  0
 43 44  2  0  0  0  0
 44 46  1  0  0  0  0
 44 49  1  0  0  0  0
 45 47  2  0  0  0  0
 45 43  1  0  0  0  0
 47 48  1  0  0  0  0
 48 46  2  0  0  0  0
 51 52  1  0  0  0  0
 53 52  1  0  0  0  0
 53 54  1  0  0  0  0
 54 55  1  0  0  0  0
 56 55  1  0  0  0  0
M  END
>  <REMARK>
 VINA RESULT:    -9.096      5.917     10.060
 INTER + INTRA:         -13.314
 INTER:                  -9.137
 INTRA:                  -4.177
 UNBOUND:                 4.555
 SMILES CC(=O)N[C@@H]1[C@@H](O)C[C@](O)(C(=O)O)O[C@H]1C(O)[C@H](O)CNC(=O)OCc1cn(C2CCc3ccccc3NC2=O)nn1
 SMILES IDX 24 1 22 2 21 3 23 5 20 6 18 7 16 8 15 9 9 10 8 11 14 12 6 13
 SMILES IDX 5 14 10 15 11 17 12 18 13 19 7 21 4 23 2 24 1 26 3 27 17 28
 SMILES IDX 19 30 25 32 26 33 27 34 42 35 28 36 41 37 29 38 39 40 38 41
 SMILES IDX 40 42 37 44 32 45 36 46 33 47 35 48 34 49 31 50 30 51
 H PARENT 21 4 10 16 13 20 7 22 4 25 17 29 19 31 38 43
 Flexibility Score: 80.00
  4 active torsions:
  status: ('A' for Active; 'I' for Inactive)
    1  A    between atoms: CA   and  CB  
    2  A    between atoms: CB   and  CG  
    3  A    between atoms: CG   and  CD  
    4  A    between atoms: CD   and  CE  

>  <TORSDO>
F 15

>  <BEGIN_>
RES LYS A 131

$$$$
ligand_80_pose_14_2HRL.pdbqt
 OpenBabel07062320523D

  6  5  0  0  0  0  0  0  0  0999 V2000
   33.1930   34.6630    9.2900 C   0  0  0  0  0  0  0  0  0  0  0  0
   32.0600   35.3600   10.0340 C   0  0  0  0  0  0  0  0  0  0  0  0
   30.7820   34.5630   10.0690 C   0  0  0  0  0  0  0  0  0  0  0  0
   30.2880   34.2790    8.6590 C   0  0  0  0  0  0  0  0  0  0  0  0
   29.7490   35.5440    8.0190 C   0  0  0  0  0  0  0  0  0  0  0  0
   28.5670   35.2510    7.1620 N   0  0  0  0  0  0  0  0  0  0  0  0
  1  2  1  0  0  0  0
  2  3  1  0  0  0  0
  4  3  1  0  0  0  0
  5  4  1  0  0  0  0
  6  5  1  0  0  0  0
M  END
>  <EGIN_R>
ES LYS A 135

>  <REMARK>
  4 active torsions:
  status: ('A' for Active; 'I' for Inactive)
    5  A    between atoms: CA   and  CB  
    6  A    between atoms: CB   and  CG  
    7  A    between atoms: CG   and  CD  
    8  A    between atoms: CD   and  CE  

$$$$
