ligand_35_pose_17_2HRL.pdbqt
 OpenBabel07062320523D

 49 49  0  0  1  0  0  0  0  0999 V2000
   29.9530   33.1270   18.5060 N   0  0  0  0  0  0  0  0  0  0  0  0
   30.3830   33.3380   17.1760 C   0  0  0  0  0  0  0  0  0  0  0  0
   31.4780   32.8860   16.7560 O   0  0  0  0  0  0  0  0  0  0  0  0
   29.0410   33.5210   18.8040 H   0  0  0  0  0  0  0  0  0  0  0  0
   30.7370   32.3850   19.4500 C   0  0  0  0  0  0  0  0  0  0  0  0
   30.2150   30.9600   19.6690 C   0  0  2  0  0  0  0  0  0  0  0  0
   31.1470   30.2900   20.6180 C   0  0  2  0  0  0  0  0  0  0  0  0
   30.5580   29.8030   21.8990 C   0  0  2  0  0  0  0  0  0  0  0  0
   32.2010   28.2490   22.4810 C   0  0  2  0  0  0  0  0  0  0  0  0
   31.5040   27.3040   21.5850 C   0  0  0  0  0  0  0  0  0  0  0  0
   31.6110   29.4580   22.7340 O   0  0  0  0  0  0  0  0  0  0  0  0
   30.0200   27.3900   21.5210 C   0  0  1  0  0  0  0  0  0  0  0  0
   29.5030   28.7680   21.8210 C   0  0  1  0  0  0  0  0  0  0  0  0
   33.4310   28.5620   21.8420 O   0  0  0  0  0  0  0  0  0  0  0  0
   34.1050   28.6510   22.5490 H   0  0  0  0  0  0  0  0  0  0  0  0
   32.5630   27.5540   23.7460 C   0  0  0  0  0  0  0  0  0  0  0  0
   33.5230   26.7380   23.8090 O   0  0  0  0  0  0  0  0  0  0  0  0
   31.8510   27.7820   24.9110 O   0  0  0  0  0  0  0  0  0  0  0  0
   31.2310   27.0990   25.3320 H   0  0  0  0  0  0  0  0  0  0  0  0
   29.6310   26.9600   20.2390 O   0  0  0  0  0  0  0  0  0  0  0  0
   28.7920   27.4400   20.0340 H   0  0  0  0  0  0  0  0  0  0  0  0
   28.8530   28.7400   23.1470 N   0  0  0  0  0  0  0  0  0  0  0  0
   27.7960   29.6230   23.4620 C   0  0  0  0  0  0  0  0  0  0  0  0
   29.1450   28.0790   23.8890 H   0  0  0  0  0  0  0  0  0  0  0  0
   27.1170   29.6320   24.7710 C   0  0  0  0  0  0  0  0  0  0  0  0
   27.3900   30.4610   22.5900 O   0  0  0  0  0  0  0  0  0  0  0  0
   32.0690   31.3130   21.0130 O   0  0  0  0  0  0  0  0  0  0  0  0
   32.8250   31.2130   20.3820 H   0  0  0  0  0  0  0  0  0  0  0  0
   30.2410   30.3680   18.4130 O   0  0  0  0  0  0  0  0  0  0  0  0
   30.8390   30.9150   17.8440 H   0  0  0  0  0  0  0  0  0  0  0  0
   29.5930   34.0700   16.2680 O   0  0  0  0  0  0  0  0  0  0  0  0
   28.8080   33.4040   15.2960 C   0  0  0  0  0  0  0  0  0  0  0  0
   28.3560   32.0780   15.7870 C   0  0  0  0  0  0  0  0  0  0  0  0
   27.2690   31.8370   16.6320 C   0  0  0  0  0  0  0  0  0  0  0  0
   28.8700   30.8540   15.5380 N   0  0  0  0  0  0  0  0  0  0  0  0
   27.1750   30.5230   16.8520 N   0  0  0  0  0  0  0  0  0  0  0  0
   28.1410   29.9370   16.1910 N   0  0  0  0  0  0  0  0  0  0  0  0
   26.1770   29.8380   17.6810 C   0  0  1  0  0  0  0  0  0  0  0  0
   25.3110   28.9460   16.8080 C   0  0  0  0  0  0  0  0  0  0  0  0
   26.7970   29.0600   18.7520 C   0  0  0  0  0  0  0  0  0  0  0  0
   26.2470   28.9920   19.8750 O   0  0  0  0  0  0  0  0  0  0  0  0
   27.9980   28.3670   18.6110 O   0  0  0  0  0  0  0  0  0  0  0  0
   28.7010   28.6670   17.9460 H   0  0  0  0  0  0  0  0  0  0  0  0
   29.8670   25.5550   16.9770 C   0  0  0  0  0  0  0  0  0  0  0  0
   28.3450   25.7220   17.0260 C   0  0  0  0  0  0  0  0  0  0  0  0
   27.6010   24.4040   16.8720 C   0  0  0  0  0  0  0  0  0  0  0  0
   26.6580   24.1500   18.0150 C   0  0  0  0  0  0  0  0  0  0  0  0
   25.9390   25.4440   18.3800 C   0  0  0  0  0  0  0  0  0  0  0  0
   25.8040   25.5660   19.8510 N   0  0  0  0  0  0  0  0  0  0  0  0
  1  4  1  0  0  0  0
  1  5  1  0  0  0  0
  2  1  1  0  0  0  0
  3  2  2  0  0  0  0
  6  5  1  6  0  0  0
  6  7  1  0  0  0  0
  7 27  1  1  0  0  0
  8  7  1  6  0  0  0
  8 11  1  0  0  0  0
  9 14  1  6  0  0  0
  9 11  1  0  0  0  0
  9 16  1  0  0  0  0
 10  9  1  0  0  0  0
 12 20  1  6  0  0  0
 12 10  1  0  0  0  0
 12 13  1  0  0  0  0
 13  8  1  0  0  0  0
 13 22  1  1  0  0  0
 14 15  1  0  0  0  0
 16 17  2  0  0  0  0
 16 18  1  0  0  0  0
 18 19  1  0  0  0  0
 21 20  1  0  0  0  0
 22 23  1  0  0  0  0
 22 24  1  0  0  0  0
 23 25  1  0  0  0  0
 26 23  2  0  0  0  0
 28 27  1  0  0  0  0
 29  6  1  0  0  0  0
 30 29  1  0  0  0  0
 31  2  1  0  0  0  0
 32 33  1  0  0  0  0
 32 31  1  0  0  0  0
 33 34  2  0  0  0  0
 34 36  1  0  0  0  0
 35 33  1  0  0  0  0
 35 37  2  0  0  0  0
 36 38  1  0  0  0  0
 37 36  1  0  0  0  0
 38 39  1  6  0  0  0
 38 40  1  0  0  0  0
 40 41  2  0  0  0  0
 42 40  1  0  0  0  0
 43 42  1  0  0  0  0
 44 45  1  0  0  0  0
 46 45  1  0  0  0  0
 46 47  1  0  0  0  0
 47 48  1  0  0  0  0
 48 49  1  0  0  0  0
M  END
>  <REMARK>
 VINA RESULT:    -4.775      3.184      6.984
 INTER + INTRA:         -13.406
 INTER:                  -7.565
 INTRA:                  -5.841
 UNBOUND:                -4.724
 SMILES CC(=O)N[C@@H]1[C@@H](O)C[C@](O)(C(=O)O)O[C@H]1C(O)[C@H](O)CNC(=O)OCc1cn([C@@H](C)C(=O)O)nn1
 SMILES IDX 21 1 22 2 23 3 20 5 18 6 16 7 15 8 9 9 8 10 14 11 6 12 5 13
 SMILES IDX 10 14 11 16 12 17 13 18 7 20 4 22 2 23 1 25 3 26 17 27 19 29
 SMILES IDX 24 31 25 32 26 33 27 34 35 35 28 36 34 37 29 38 30 39 31 40
 SMILES IDX 32 41 33 42
 H PARENT 21 4 10 15 13 19 7 21 4 24 17 28 19 30 33 43
 Flexibility Score: inf
  4 active torsions:
  status: ('A' for Active; 'I' for Inactive)
    1  A    between atoms: CA   and  CB  
    2  A    between atoms: CB   and  CG  
    3  A    between atoms: CG   and  CD  
    4  A    between atoms: CD   and  CE  

>  <TORSDO>
F 17

>  <BEGIN_>
RES LYS A 131

$$$$
ligand_35_pose_17_2HRL.pdbqt
 OpenBabel07062320523D

  6  5  0  0  0  0  0  0  0  0999 V2000
   33.1930   34.6630    9.2900 C   0  0  0  0  0  0  0  0  0  0  0  0
   32.0600   35.3600   10.0340 C   0  0  0  0  0  0  0  0  0  0  0  0
   30.7950   35.4850    9.2250 C   0  0  0  0  0  0  0  0  0  0  0  0
   30.0090   34.1830    9.2530 C   0  0  0  0  0  0  0  0  0  0  0  0
   28.7720   34.3270   10.1190 C   0  0  0  0  0  0  0  0  0  0  0  0
   27.5680   33.7890    9.4280 N   0  0  0  0  0  0  0  0  0  0  0  0
  1  2  1  0  0  0  0
  3  4  1  0  0  0  0
  3  2  1  0  0  0  0
  4  5  1  0  0  0  0
  6  5  1  0  0  0  0
M  END
>  <EGIN_R>
ES LYS A 135

>  <REMARK>
  4 active torsions:
  status: ('A' for Active; 'I' for Inactive)
    5  A    between atoms: CA   and  CB  
    6  A    between atoms: CB   and  CG  
    7  A    between atoms: CG   and  CD  
    8  A    between atoms: CD   and  CE  

$$$$
