ligand_20_pose_8_2HRL.pdbqt
 OpenBabel07062320523D

 53 55  0  0  1  0  0  0  0  0999 V2000
   31.9220   39.1370   10.3880 C   0  0  0  0  0  0  0  0  0  0  0  0
   31.4180   39.1480    9.0120 C   0  0  2  0  0  0  0  0  0  0  0  0
   29.9050   39.4600    8.9830 C   0  0  1  0  0  0  0  0  0  0  0  0
   29.0740   38.3140    8.6050 C   0  0  2  0  0  0  0  0  0  0  0  0
   28.4880   38.6220    6.3620 C   0  0  2  0  0  0  0  0  0  0  0  0
   27.3860   39.5070    6.8720 C   0  0  0  0  0  0  0  0  0  0  0  0
   29.1150   37.8740    7.3150 O   0  0  0  0  0  0  0  0  0  0  0  0
   26.6960   38.9770    8.0800 C   0  0  1  0  0  0  0  0  0  0  0  0
   27.6360   38.4550    9.1200 C   0  0  1  0  0  0  0  0  0  0  0  0
   29.4230   39.4000    5.6800 O   0  0  0  0  0  0  0  0  0  0  0  0
   29.8460   40.0740    6.2660 H   0  0  0  0  0  0  0  0  0  0  0  0
   27.8750   37.6890    5.3890 C   0  0  0  0  0  0  0  0  0  0  0  0
   27.6490   36.5110    5.7130 O   0  0  0  0  0  0  0  0  0  0  0  0
   27.5570   38.1300    4.1220 O   0  0  0  0  0  0  0  0  0  0  0  0
   28.2620   38.4410    3.4390 H   0  0  0  0  0  0  0  0  0  0  0  0
   25.8790   40.0010    8.5950 O   0  0  0  0  0  0  0  0  0  0  0  0
   26.2020   40.1550    9.5150 H   0  0  0  0  0  0  0  0  0  0  0  0
   27.1690   37.2500    9.7520 N   0  0  0  0  0  0  0  0  0  0  0  0
   27.2830   37.0290   11.1510 C   0  0  0  0  0  0  0  0  0  0  0  0
   26.7180   36.4840    9.1650 H   0  0  0  0  0  0  0  0  0  0  0  0
   26.7890   35.7750   11.7510 C   0  0  0  0  0  0  0  0  0  0  0  0
   27.8130   37.9230   11.8590 O   0  0  0  0  0  0  0  0  0  0  0  0
   29.6600   39.6770   10.3870 O   0  0  0  0  0  0  0  0  0  0  0  0
   28.7020   39.5600   10.5840 H   0  0  0  0  0  0  0  0  0  0  0  0
   31.4840   37.7700    8.5770 O   0  0  0  0  0  0  0  0  0  0  0  0
   32.1290   37.2810    9.1590 H   0  0  0  0  0  0  0  0  0  0  0  0
   32.0390   37.8520   11.0200 N   0  0  0  0  0  0  0  0  0  0  0  0
   31.5390   37.6060   12.3250 C   0  0  0  0  0  0  0  0  0  0  0  0
   32.4500   37.0530   10.5120 H   0  0  0  0  0  0  0  0  0  0  0  0
   30.9790   38.5540   12.9350 O   0  0  0  0  0  0  0  0  0  0  0  0
   31.6330   36.3910   12.9630 O   0  0  0  0  0  0  0  0  0  0  0  0
   32.1300   36.2060   14.2750 C   0  0  0  0  0  0  0  0  0  0  0  0
   31.6270   34.8790   14.7690 C   0  0  0  0  0  0  0  0  0  0  0  0
   30.3310   34.4140   14.7970 C   0  0  0  0  0  0  0  0  0  0  0  0
   32.3740   33.8680   15.2940 N   0  0  0  0  0  0  0  0  0  0  0  0
   30.3680   33.1590   15.3320 N   0  0  0  0  0  0  0  0  0  0  0  0
   31.6200   32.8550   15.6240 N   0  0  0  0  0  0  0  0  0  0  0  0
   29.2300   32.3360   15.5320 C   0  0  0  0  0  0  0  0  0  0  0  0
   29.4000   30.9790   15.7260 C   0  0  0  0  0  0  0  0  0  0  0  0
   27.9380   32.8180   15.5450 C   0  0  0  0  0  0  0  0  0  0  0  0
   28.3320   30.1290   15.9260 C   0  0  0  0  0  0  0  0  0  0  0  0
   26.8660   31.9970   15.7410 C   0  0  0  0  0  0  0  0  0  0  0  0
   27.0400   30.6280   15.9370 C   0  0  0  0  0  0  0  0  0  0  0  0
   25.5070   32.1990   15.8000 C   0  0  0  0  0  0  0  0  0  0  0  0
   25.8320   30.0670   16.1020 N   0  0  0  0  0  0  0  0  0  0  0  0
   24.9060   30.9950   16.0230 N   0  0  0  0  0  0  0  0  0  0  0  0
   25.6650   29.0560   16.2660 H   0  0  0  0  0  0  0  0  0  0  0  0
   29.8670   25.5550   16.9770 C   0  0  0  0  0  0  0  0  0  0  0  0
   28.3450   25.7220   17.0260 C   0  0  0  0  0  0  0  0  0  0  0  0
   27.6030   24.3950   16.9840 C   0  0  0  0  0  0  0  0  0  0  0  0
   26.1900   24.5200   17.4810 C   0  0  0  0  0  0  0  0  0  0  0  0
   25.8580   23.3300   18.3760 C   0  0  0  0  0  0  0  0  0  0  0  0
   25.1250   22.2940   17.6120 N   0  0  0  0  0  0  0  0  0  0  0  0
  1 27  1  0  0  0  0
  2  1  1  1  0  0  0
  3  2  1  0  0  0  0
  3 23  1  1  0  0  0
  4  3  1  6  0  0  0
  4  9  1  0  0  0  0
  5 12  1  6  0  0  0
  5  6  1  0  0  0  0
  5  7  1  0  0  0  0
  6  8  1  0  0  0  0
  7  4  1  0  0  0  0
  8 16  1  1  0  0  0
  8  9  1  0  0  0  0
  9 18  1  6  0  0  0
 10 11  1  0  0  0  0
 10  5  1  0  0  0  0
 12 13  2  0  0  0  0
 14 12  1  0  0  0  0
 15 14  1  0  0  0  0
 16 17  1  0  0  0  0
 18 19  1  0  0  0  0
 19 21  1  0  0  0  0
 19 22  2  0  0  0  0
 20 18  1  0  0  0  0
 23 24  1  0  0  0  0
 25  2  1  0  0  0  0
 25 26  1  0  0  0  0
 27 28  1  0  0  0  0
 28 30  2  0  0  0  0
 28 31  1  0  0  0  0
 29 27  1  0  0  0  0
 31 32  1  0  0  0  0
 32 33  1  0  0  0  0
 33 34  2  0  0  0  0
 33 35  1  0  0  0  0
 34 36  1  0  0  0  0
 35 37  2  0  0  0  0
 36 38  1  0  0  0  0
 36 37  1  0  0  0  0
 38 40  2  0  0  0  0
 38 39  1  0  0  0  0
 39 41  2  0  0  0  0
 40 42  1  0  0  0  0
 41 43  1  0  0  0  0
 42 44  1  0  0  0  0
 42 43  2  0  0  0  0
 43 45  1  0  0  0  0
 44 46  2  0  0  0  0
 45 47  1  0  0  0  0
 46 45  1  0  0  0  0
 48 49  1  0  0  0  0
 50 49  1  0  0  0  0
 50 51  1  0  0  0  0
 51 52  1  0  0  0  0
 53 52  1  0  0  0  0
M  END
>  <REMARK>
 VINA RESULT:    -4.696      3.315      8.048
 INTER + INTRA:         -14.618
 INTER:                  -9.121
 INTRA:                  -5.497
 UNBOUND:                -6.490
 SMILES CC(=O)N[C@@H]1[C@@H](O)C[C@](O)(C(=O)O)O[C@H]1C(O)[C@H](O)CNC(=O)OCc1cn(-c2ccc3[nH]ncc3c2)nn1
 SMILES IDX 20 1 18 2 16 3 15 4 9 5 8 6 14 7 6 8 5 9 10 10 11 12 12 13
 SMILES IDX 13 14 7 16 4 18 2 19 1 21 3 22 17 23 19 25 21 27 22 28 23 30
 SMILES IDX 24 31 25 32 26 33 27 34 39 35 28 36 38 37 29 38 30 39 37 40
 SMILES IDX 31 41 36 42 32 43 35 44 33 45 34 46
 H PARENT 10 11 13 15 7 17 4 20 17 24 19 26 21 29 33 47
 Flexibility Score: inf
  4 active torsions:
  status: ('A' for Active; 'I' for Inactive)
    1  A    between atoms: CA   and  CB  
    2  A    between atoms: CB   and  CG  
    3  A    between atoms: CG   and  CD  
    4  A    between atoms: CD   and  CE  

>  <TORSDO>
F 15

>  <BEGIN_>
RES LYS A 131

$$$$
ligand_20_pose_8_2HRL.pdbqt
 OpenBabel07062320523D

  6  5  0  0  0  0  0  0  0  0999 V2000
   33.1930   34.6630    9.2900 C   0  0  0  0  0  0  0  0  0  0  0  0
   32.0600   35.3600   10.0340 C   0  0  0  0  0  0  0  0  0  0  0  0
   30.7450   34.6280    9.9520 C   0  0  0  0  0  0  0  0  0  0  0  0
   30.3540   34.3880    8.5020 C   0  0  0  0  0  0  0  0  0  0  0  0
   28.8520   34.5010    8.3290 C   0  0  0  0  0  0  0  0  0  0  0  0
   28.1330   33.6990    9.3580 N   0  0  0  0  0  0  0  0  0  0  0  0
  1  2  1  0  0  0  0
  3  2  1  0  0  0  0
  4  3  1  0  0  0  0
  5  4  1  0  0  0  0
  5  6  1  0  0  0  0
M  END
>  <EGIN_R>
ES LYS A 135

>  <REMARK>
  4 active torsions:
  status: ('A' for Active; 'I' for Inactive)
    5  A    between atoms: CA   and  CB  
    6  A    between atoms: CB   and  CG  
    7  A    between atoms: CG   and  CD  
    8  A    between atoms: CD   and  CE  

$$$$
