ligand_11_pose_7_2HRL.pdbqt
 OpenBabel07062320523D

 54 54  0  0  1  0  0  0  0  0999 V2000
   31.4800   32.9050   16.6700 O   0  0  0  0  0  0  0  0  0  0  0  0
   32.0490   34.0650   16.1310 C   0  0  0  0  0  0  0  0  0  0  0  0
   32.6530   34.0940   14.8660 N   0  0  0  0  0  0  0  0  0  0  0  0
   32.6600   33.1580   14.3390 H   0  0  0  0  0  0  0  0  0  0  0  0
   31.9960   35.0880   16.8330 O   0  0  0  0  0  0  0  0  0  0  0  0
   33.2520   35.2250   14.2160 C   0  0  0  0  0  0  0  0  0  0  0  0
   32.3880   35.7650   13.1460 C   0  0  2  0  0  0  0  0  0  0  0  0
   31.0600   35.0410   13.0220 C   0  0  1  0  0  0  0  0  0  0  0  0
   29.9370   36.0390   12.7270 C   0  0  2  0  0  0  0  0  0  0  0  0
   29.4420   37.1520   14.7260 C   0  0  2  0  0  0  0  0  0  0  0  0
   28.6840   35.9030   15.0760 C   0  0  0  0  0  0  0  0  0  0  0  0
   29.9970   37.1630   13.4830 O   0  0  0  0  0  0  0  0  0  0  0  0
   27.8980   35.2970   13.9690 C   0  0  1  0  0  0  0  0  0  0  0  0
   28.6050   35.3540   12.6460 C   0  0  1  0  0  0  0  0  0  0  0  0
   30.4770   37.2480   15.6570 O   0  0  0  0  0  0  0  0  0  0  0  0
   31.3300   37.4780   15.2350 H   0  0  0  0  0  0  0  0  0  0  0  0
   28.5680   38.3370   14.9080 C   0  0  0  0  0  0  0  0  0  0  0  0
   28.0090   38.5410   16.0120 O   0  0  0  0  0  0  0  0  0  0  0  0
   28.3380   39.2510   13.8840 O   0  0  0  0  0  0  0  0  0  0  0  0
   27.7600   38.9210   13.1110 H   0  0  0  0  0  0  0  0  0  0  0  0
   27.6570   33.9630   14.2940 O   0  0  0  0  0  0  0  0  0  0  0  0
   27.5660   33.8440   15.2770 H   0  0  0  0  0  0  0  0  0  0  0  0
   27.8300   36.0010   11.6270 N   0  0  0  0  0  0  0  0  0  0  0  0
   26.7510   35.3090   11.0230 C   0  0  0  0  0  0  0  0  0  0  0  0
   28.0620   36.9920   11.3260 H   0  0  0  0  0  0  0  0  0  0  0  0
   25.9510   35.9710    9.9720 C   0  0  0  0  0  0  0  0  0  0  0  0
   26.4380   34.1310   11.3460 O   0  0  0  0  0  0  0  0  0  0  0  0
   31.1380   34.1240   11.9930 O   0  0  0  0  0  0  0  0  0  0  0  0
   30.3510   34.2440   11.4030 H   0  0  0  0  0  0  0  0  0  0  0  0
   33.0310   35.9170   11.9610 O   0  0  0  0  0  0  0  0  0  0  0  0
   32.6410   35.4330   11.1990 H   0  0  0  0  0  0  0  0  0  0  0  0
   30.9440   31.9140   15.7980 C   0  0  0  0  0  0  0  0  0  0  0  0
   29.5330   31.6610   16.0540 C   0  0  0  0  0  0  0  0  0  0  0  0
   28.7580   30.6220   15.6150 C   0  0  0  0  0  0  0  0  0  0  0  0
   28.7110   32.4240   16.7920 N   0  0  0  0  0  0  0  0  0  0  0  0
   27.5070   30.7580   16.0770 N   0  0  0  0  0  0  0  0  0  0  0  0
   27.5130   31.8670   16.7910 N   0  0  0  0  0  0  0  0  0  0  0  0
   26.3250   29.9340   15.8970 C   0  0  1  0  0  0  0  0  0  0  0  0
   25.9740   29.2460   17.1650 C   0  0  0  0  0  0  0  0  0  0  0  0
   26.7640   28.0370   17.4970 C   0  0  0  0  0  0  0  0  0  0  0  0
   27.5950   28.1830   18.6910 C   0  0  0  0  0  0  0  0  0  0  0  0
   27.6460   27.2680   19.5850 O   0  0  0  0  0  0  0  0  0  0  0  0
   28.3540   29.3410   18.8740 O   0  0  0  0  0  0  0  0  0  0  0  0
   28.4450   29.6910   19.8170 H   0  0  0  0  0  0  0  0  0  0  0  0
   25.2540   30.5980   15.1740 C   0  0  0  0  0  0  0  0  0  0  0  0
   24.1760   30.0990   14.8550 O   0  0  0  0  0  0  0  0  0  0  0  0
   25.4770   31.9360   14.7980 O   0  0  0  0  0  0  0  0  0  0  0  0
   26.2950   32.1540   14.2560 H   0  0  0  0  0  0  0  0  0  0  0  0
   29.8670   25.5550   16.9770 C   0  0  0  0  0  0  0  0  0  0  0  0
   28.3450   25.7220   17.0260 C   0  0  0  0  0  0  0  0  0  0  0  0
   27.6020   24.4000   16.9140 C   0  0  0  0  0  0  0  0  0  0  0  0
   26.5300   24.2620   17.9600 C   0  0  0  0  0  0  0  0  0  0  0  0
   25.1920   24.7100   17.3800 C   0  0  0  0  0  0  0  0  0  0  0  0
   24.3800   25.3920   18.4150 N   0  0  0  0  0  0  0  0  0  0  0  0
  2  1  1  0  0  0  0
  2  5  2  0  0  0  0
  3  2  1  0  0  0  0
  4  3  1  0  0  0  0
  6  3  1  0  0  0  0
  7  6  1  1  0  0  0
  8 28  1  6  0  0  0
  8  7  1  0  0  0  0
  9  8  1  1  0  0  0
  9 12  1  0  0  0  0
 10 17  1  1  0  0  0
 10 11  1  0  0  0  0
 10 15  1  0  0  0  0
 12 10  1  0  0  0  0
 13 21  1  1  0  0  0
 13 11  1  0  0  0  0
 14 23  1  6  0  0  0
 14  9  1  0  0  0  0
 14 13  1  0  0  0  0
 16 15  1  0  0  0  0
 17 18  2  0  0  0  0
 19 17  1  0  0  0  0
 20 19  1  0  0  0  0
 21 22  1  0  0  0  0
 24 27  2  0  0  0  0
 24 23  1  0  0  0  0
 25 23  1  0  0  0  0
 26 24  1  0  0  0  0
 29 28  1  0  0  0  0
 30  7  1  0  0  0  0
 31 30  1  0  0  0  0
 32 33  1  0  0  0  0
 32  1  1  0  0  0  0
 33 35  1  0  0  0  0
 34 33  2  0  0  0  0
 34 36  1  0  0  0  0
 36 37  1  0  0  0  0
 37 35  2  0  0  0  0
 38 36  1  0  0  0  0
 38 39  1  1  0  0  0
 39 40  1  0  0  0  0
 40 41  1  0  0  0  0
 41 43  1  0  0  0  0
 41 42  2  0  0  0  0
 43 44  1  0  0  0  0
 45 38  1  0  0  0  0
 46 45  2  0  0  0  0
 47 45  1  0  0  0  0
 48 47  1  0  0  0  0
 49 50  1  0  0  0  0
 51 50  1  0  0  0  0
 51 52  1  0  0  0  0
 53 52  1  0  0  0  0
 53 54  1  0  0  0  0
M  END
>  <REMARK>
 VINA RESULT:    -4.001      3.968      8.824
 INTER + INTRA:         -15.531
 INTER:                  -9.053
 INTRA:                  -6.478
 UNBOUND:                -7.438
 SMILES CC(=O)N[C@@H]1[C@@H](O)C[C@](O)(C(=O)O)O[C@H]1C(O)[C@H](O)CNC(=O)OCc1cn([C@@H](CCC(=O)O)C(=O)O)nn1
 SMILES IDX 24 1 22 2 21 3 23 5 20 6 18 7 16 8 15 9 9 10 8 11 14 12 6 13
 SMILES IDX 5 14 10 15 11 17 12 18 13 19 7 21 4 23 2 24 1 26 3 27 17 28
 SMILES IDX 19 30 25 32 26 33 27 34 39 35 28 36 38 37 29 38 30 39 31 40
 SMILES IDX 32 41 33 42 34 43 35 45 36 46 37 47
 H PARENT 21 4 10 16 13 20 7 22 4 25 17 29 19 31 34 44 37 48
 Flexibility Score: inf
  4 active torsions:
  status: ('A' for Active; 'I' for Inactive)
    1  A    between atoms: CA   and  CB  
    2  A    between atoms: CB   and  CG  
    3  A    between atoms: CG   and  CD  
    4  A    between atoms: CD   and  CE  

>  <TORSDO>
F 21

>  <BEGIN_>
RES LYS A 131

$$$$
ligand_11_pose_7_2HRL.pdbqt
 OpenBabel07062320523D

  6  5  0  0  0  0  0  0  0  0999 V2000
   33.1930   34.6630    9.2900 C   0  0  0  0  0  0  0  0  0  0  0  0
   32.0600   35.3600   10.0340 C   0  0  0  0  0  0  0  0  0  0  0  0
   30.8860   35.7070    9.1550 C   0  0  0  0  0  0  0  0  0  0  0  0
   30.0940   34.4580    8.8000 C   0  0  0  0  0  0  0  0  0  0  0  0
   28.9140   34.8090    7.9140 C   0  0  0  0  0  0  0  0  0  0  0  0
   28.8180   36.2810    7.7080 N   0  0  0  0  0  0  0  0  0  0  0  0
  1  2  1  0  0  0  0
  3  2  1  0  0  0  0
  4  3  1  0  0  0  0
  5  4  1  0  0  0  0
  6  5  1  0  0  0  0
M  END
>  <EGIN_R>
ES LYS A 135

>  <REMARK>
  4 active torsions:
  status: ('A' for Active; 'I' for Inactive)
    5  A    between atoms: CA   and  CB  
    6  A    between atoms: CB   and  CG  
    7  A    between atoms: CG   and  CD  
    8  A    between atoms: CD   and  CE  

$$$$
