ligand_58_pose_0_2HRL.pdbqt
 OpenBabel07062320523D

 56 58  0  0  1  0  0  0  0  0999 V2000
   31.0610   35.1870   14.7350 N   0  0  0  0  0  0  0  0  0  0  0  0
   30.5060   35.2840   13.4400 C   0  0  0  0  0  0  0  0  0  0  0  0
   30.9040   34.5240   12.5260 O   0  0  0  0  0  0  0  0  0  0  0  0
   30.7110   35.8340   15.4710 H   0  0  0  0  0  0  0  0  0  0  0  0
   32.0750   34.2300   15.0460 C   0  0  0  0  0  0  0  0  0  0  0  0
   31.7040   33.5250   16.3510 C   0  0  2  0  0  0  0  0  0  0  0  0
   30.5340   32.6180   16.0050 C   0  0  2  0  0  0  0  0  0  0  0  0
   30.4430   31.3640   16.8270 C   0  0  2  0  0  0  0  0  0  0  0  0
   28.1510   30.8740   16.6010 C   0  0  2  0  0  0  0  0  0  0  0  0
   27.8970   31.2550   18.0430 C   0  0  0  0  0  0  0  0  0  0  0  0
   29.4360   30.5960   16.2770 O   0  0  0  0  0  0  0  0  0  0  0  0
   28.9250   32.2010   18.5870 C   0  0  1  0  0  0  0  0  0  0  0  0
   30.2740   31.6280   18.2700 C   0  0  1  0  0  0  0  0  0  0  0  0
   27.7320   31.9710   15.8450 O   0  0  0  0  0  0  0  0  0  0  0  0
   28.4560   32.6550   15.9110 H   0  0  0  0  0  0  0  0  0  0  0  0
   27.2270   29.7360   16.2460 C   0  0  0  0  0  0  0  0  0  0  0  0
   26.1330   29.9340   15.7110 O   0  0  0  0  0  0  0  0  0  0  0  0
   27.6360   28.4540   16.5340 O   0  0  0  0  0  0  0  0  0  0  0  0
   28.4440   28.3160   17.1510 H   0  0  0  0  0  0  0  0  0  0  0  0
   28.6950   33.4420   18.0650 O   0  0  0  0  0  0  0  0  0  0  0  0
   29.0140   34.1610   18.6760 H   0  0  0  0  0  0  0  0  0  0  0  0
   30.4040   30.3840   19.0560 N   0  0  0  0  0  0  0  0  0  0  0  0
   31.0540   30.3480   20.3010 C   0  0  0  0  0  0  0  0  0  0  0  0
   29.9950   29.5120   18.6570 H   0  0  0  0  0  0  0  0  0  0  0  0
   31.1630   29.0740   21.0590 C   0  0  0  0  0  0  0  0  0  0  0  0
   31.5550   31.3970   20.7920 O   0  0  0  0  0  0  0  0  0  0  0  0
   30.7900   32.2200   14.6410 O   0  0  0  0  0  0  0  0  0  0  0  0
   31.6150   32.6120   14.3170 H   0  0  0  0  0  0  0  0  0  0  0  0
   31.3450   34.5400   17.2260 O   0  0  0  0  0  0  0  0  0  0  0  0
   30.7470   35.2010   16.8270 H   0  0  0  0  0  0  0  0  0  0  0  0
   29.5160   36.2100   13.1340 O   0  0  0  0  0  0  0  0  0  0  0  0
   28.1880   35.7740   13.0370 C   0  0  0  0  0  0  0  0  0  0  0  0
   27.4410   36.6950   12.1430 C   0  0  0  0  0  0  0  0  0  0  0  0
   27.1610   36.4580   10.7940 C   0  0  0  0  0  0  0  0  0  0  0  0
   26.8930   37.8980   12.3880 N   0  0  0  0  0  0  0  0  0  0  0  0
   26.4800   37.4960   10.3040 N   0  0  0  0  0  0  0  0  0  0  0  0
   26.3270   38.3550   11.2770 N   0  0  0  0  0  0  0  0  0  0  0  0
   25.9820   37.6810    8.9480 C   0  0  0  0  0  0  0  0  0  0  0  0
   26.9990   37.3460    7.9510 C   0  0  0  0  0  0  0  0  0  0  0  0
   26.9060   36.2020    7.1490 C   0  0  0  0  0  0  0  0  0  0  0  0
   28.0820   38.1810    7.7640 C   0  0  0  0  0  0  0  0  0  0  0  0
   27.8700   35.9220    6.2050 C   0  0  0  0  0  0  0  0  0  0  0  0
   29.0340   37.8770    6.8110 C   0  0  0  0  0  0  0  0  0  0  0  0
   28.9560   36.7530    6.0150 C   0  0  0  0  0  0  0  0  0  0  0  0
   24.6480   37.1130    8.7330 C   0  0  0  0  0  0  0  0  0  0  0  0
   24.2370   35.9710    9.4430 C   0  0  0  0  0  0  0  0  0  0  0  0
   23.7770   37.6900    7.8410 C   0  0  0  0  0  0  0  0  0  0  0  0
   22.9870   35.4420    9.2500 C   0  0  0  0  0  0  0  0  0  0  0  0
   22.5040   37.1400    7.6530 C   0  0  0  0  0  0  0  0  0  0  0  0
   22.1170   36.0230    8.3550 C   0  0  0  0  0  0  0  0  0  0  0  0
   29.8670   25.5550   16.9770 C   0  0  0  0  0  0  0  0  0  0  0  0
   28.3450   25.7220   17.0260 C   0  0  0  0  0  0  0  0  0  0  0  0
   27.6010   24.4020   16.8900 C   0  0  0  0  0  0  0  0  0  0  0  0
   26.5410   24.2380   17.9430 C   0  0  0  0  0  0  0  0  0  0  0  0
   25.1620   24.3470   17.2990 C   0  0  0  0  0  0  0  0  0  0  0  0
   24.5050   23.0200   17.2530 N   0  0  0  0  0  0  0  0  0  0  0  0
  1  5  1  0  0  0  0
  1  4  1  0  0  0  0
  2  1  1  0  0  0  0
  3  2  2  0  0  0  0
  6  5  1  6  0  0  0
  6 29  1  0  0  0  0
  7 27  1  6  0  0  0
  7  6  1  0  0  0  0
  8  7  1  6  0  0  0
  8 13  1  0  0  0  0
  9 14  1  6  0  0  0
  9 10  1  0  0  0  0
 10 12  1  0  0  0  0
 11  9  1  0  0  0  0
 11  8  1  0  0  0  0
 12 20  1  6  0  0  0
 13 12  1  0  0  0  0
 13 22  1  1  0  0  0
 14 15  1  0  0  0  0
 16 18  1  0  0  0  0
 16  9  1  0  0  0  0
 17 16  2  0  0  0  0
 18 19  1  0  0  0  0
 20 21  1  0  0  0  0
 22 23  1  0  0  0  0
 23 26  2  0  0  0  0
 23 25  1  0  0  0  0
 24 22  1  0  0  0  0
 28 27  1  0  0  0  0
 30 29  1  0  0  0  0
 31  2  1  0  0  0  0
 32 31  1  0  0  0  0
 33 35  1  0  0  0  0
 33 32  1  0  0  0  0
 34 33  2  0  0  0  0
 36 34  1  0  0  0  0
 36 37  1  0  0  0  0
 37 35  2  0  0  0  0
 38 36  1  0  0  0  0
 39 38  1  0  0  0  0
 40 39  2  0  0  0  0
 41 39  1  0  0  0  0
 42 40  1  0  0  0  0
 43 41  2  0  0  0  0
 44 42  2  0  0  0  0
 44 43  1  0  0  0  0
 45 38  1  0  0  0  0
 45 46  2  0  0  0  0
 47 45  1  0  0  0  0
 48 46  1  0  0  0  0
 49 47  2  0  0  0  0
 49 50  1  0  0  0  0
 50 48  2  0  0  0  0
 51 52  1  0  0  0  0
 53 52  1  0  0  0  0
 53 54  1  0  0  0  0
 55 54  1  0  0  0  0
 56 55  1  0  0  0  0
M  END
>  <REMARK>
 VINA RESULT:    -6.022      0.000      0.000
 INTER + INTRA:         -16.617
 INTER:                 -11.636
 INTRA:                  -4.981
 UNBOUND:                -5.490
 SMILES CC(=O)N[C@@H]1[C@@H](O)C[C@](O)(C(=O)O)O[C@H]1C(O)[C@H](O)CNC(=O)OCc1cn(C(c2ccccc2)c2ccccc2)nn1
 SMILES IDX 21 1 22 2 23 3 20 5 18 6 16 7 15 8 9 9 8 10 14 11 6 12 5 13
 SMILES IDX 10 14 11 16 12 17 13 18 7 20 4 22 2 23 1 25 3 26 17 27 19 29
 SMILES IDX 24 31 25 32 26 33 27 34 43 35 28 36 42 37 29 38 30 39 31 40
 SMILES IDX 35 41 32 42 34 43 33 44 36 45 37 46 41 47 38 48 40 49 39 50
 H PARENT 21 4 10 15 13 19 7 21 4 24 17 28 19 30
 Flexibility Score: inf
  4 active torsions:
  status: ('A' for Active; 'I' for Inactive)
    1  A    between atoms: CA   and  CB  
    2  A    between atoms: CB   and  CG  
    3  A    between atoms: CG   and  CD  
    4  A    between atoms: CD   and  CE  

>  <TORSDO>
F 17

>  <BEGIN_>
RES LYS A 131

$$$$
ligand_58_pose_0_2HRL.pdbqt
 OpenBabel07062320523D

  6  5  0  0  0  0  0  0  0  0999 V2000
   33.1930   34.6630    9.2900 C   0  0  0  0  0  0  0  0  0  0  0  0
   32.0600   35.3600   10.0340 C   0  0  0  0  0  0  0  0  0  0  0  0
   30.8580   35.6450    9.1710 C   0  0  0  0  0  0  0  0  0  0  0  0
   30.2640   34.3520    8.6340 C   0  0  0  0  0  0  0  0  0  0  0  0
   29.3310   33.7300    9.6540 C   0  0  0  0  0  0  0  0  0  0  0  0
   27.9270   33.7120    9.1560 N   0  0  0  0  0  0  0  0  0  0  0  0
  1  2  1  0  0  0  0
  3  2  1  0  0  0  0
  4  3  1  0  0  0  0
  4  5  1  0  0  0  0
  6  5  1  0  0  0  0
M  END
>  <EGIN_R>
ES LYS A 135

>  <REMARK>
  4 active torsions:
  status: ('A' for Active; 'I' for Inactive)
    5  A    between atoms: CA   and  CB  
    6  A    between atoms: CB   and  CG  
    7  A    between atoms: CG   and  CD  
    8  A    between atoms: CD   and  CE  

$$$$
