ligand_17_pose_10_2HRL.pdbqt
 OpenBabel07062320523D

 50 50  0  0  1  0  0  0  0  0999 V2000
   24.9620   40.6370    6.3860 N   0  0  0  0  0  0  0  0  0  0  0  0
   26.1020   41.4590    6.6390 C   0  0  0  0  0  0  0  0  0  0  0  0
   26.0730   42.3040    7.5510 O   0  0  0  0  0  0  0  0  0  0  0  0
   25.0580   39.9570    5.6120 H   0  0  0  0  0  0  0  0  0  0  0  0
   23.7440   40.7150    7.1310 C   0  0  0  0  0  0  0  0  0  0  0  0
   23.3760   39.4390    7.8340 C   0  0  2  0  0  0  0  0  0  0  0  0
   24.2560   38.3040    7.3610 C   0  0  1  0  0  0  0  0  0  0  0  0
   25.1760   37.8270    8.4480 C   0  0  2  0  0  0  0  0  0  0  0  0
   27.1370   37.7820    7.1490 C   0  0  2  0  0  0  0  0  0  0  0  0
   26.9660   36.2770    6.9990 C   0  0  0  0  0  0  0  0  0  0  0  0
   26.4410   38.2990    8.2020 O   0  0  0  0  0  0  0  0  0  0  0  0
   26.4940   35.7600    8.3630 C   0  0  1  0  0  0  0  0  0  0  0  0
   25.1520   36.3480    8.6150 C   0  0  1  0  0  0  0  0  0  0  0  0
   26.8580   38.3540    5.9100 O   0  0  0  0  0  0  0  0  0  0  0  0
   25.9420   38.1050    5.6000 H   0  0  0  0  0  0  0  0  0  0  0  0
   28.5860   38.0330    7.4350 C   0  0  0  0  0  0  0  0  0  0  0  0
   28.9750   38.5810    8.4880 O   0  0  0  0  0  0  0  0  0  0  0  0
   29.5230   37.6450    6.5010 O   0  0  0  0  0  0  0  0  0  0  0  0
   29.8880   38.2620    5.7810 H   0  0  0  0  0  0  0  0  0  0  0  0
   26.4860   34.3670    8.3040 O   0  0  0  0  0  0  0  0  0  0  0  0
   25.5870   34.1140    7.9200 H   0  0  0  0  0  0  0  0  0  0  0  0
   24.5750   35.9310    9.8780 N   0  0  0  0  0  0  0  0  0  0  0  0
   23.2400   35.4520   10.0050 C   0  0  0  0  0  0  0  0  0  0  0  0
   25.1340   35.9640   10.7780 H   0  0  0  0  0  0  0  0  0  0  0  0
   22.6950   35.0350   11.3350 C   0  0  0  0  0  0  0  0  0  0  0  0
   22.5030   35.3760    9.0020 O   0  0  0  0  0  0  0  0  0  0  0  0
   23.3540   37.3010    6.9600 O   0  0  0  0  0  0  0  0  0  0  0  0
   22.8780   37.6740    6.1710 H   0  0  0  0  0  0  0  0  0  0  0  0
   22.0340   39.2060    7.7400 O   0  0  0  0  0  0  0  0  0  0  0  0
   21.8730   38.2810    7.4270 H   0  0  0  0  0  0  0  0  0  0  0  0
   27.2690   41.3580    5.9010 O   0  0  0  0  0  0  0  0  0  0  0  0
   28.3940   42.1930    6.1440 C   0  0  0  0  0  0  0  0  0  0  0  0
   29.6110   41.3440    6.0960 C   0  0  0  0  0  0  0  0  0  0  0  0
   30.6070   41.3660    7.0730 C   0  0  0  0  0  0  0  0  0  0  0  0
   30.0160   40.4370    5.1970 N   0  0  0  0  0  0  0  0  0  0  0  0
   31.5440   40.4890    6.7230 N   0  0  0  0  0  0  0  0  0  0  0  0
   31.1750   39.9340    5.5880 N   0  0  0  0  0  0  0  0  0  0  0  0
   32.7500   40.1960    7.4490 C   0  0  0  0  0  0  0  0  0  0  0  0
   33.7710   39.6220    6.4850 C   0  0  0  0  0  0  0  0  0  0  0  0
   34.9300   40.4410    6.3250 N   0  0  0  0  0  0  0  0  0  0  0  0
   35.5900   40.3150    5.0680 C   0  0  0  0  0  0  0  0  0  0  0  0
   34.8620   39.2090    4.2900 C   0  0  0  0  0  0  0  0  0  0  0  0
   35.7600   40.4930    7.4810 C   0  0  0  0  0  0  0  0  0  0  0  0
   37.0810   39.8070    7.3200 C   0  0  0  0  0  0  0  0  0  0  0  0
   29.8670   25.5550   16.9770 C   0  0  0  0  0  0  0  0  0  0  0  0
   28.3450   25.7220   17.0260 C   0  0  0  0  0  0  0  0  0  0  0  0
   27.5990   24.4590   16.6240 C   0  0  0  0  0  0  0  0  0  0  0  0
   26.8450   23.8550   17.7760 C   0  0  0  0  0  0  0  0  0  0  0  0
   25.3760   23.6980   17.3970 C   0  0  0  0  0  0  0  0  0  0  0  0
   24.8830   22.3530   17.7760 N   0  0  0  0  0  0  0  0  0  0  0  0
  1  2  1  0  0  0  0
  1  5  1  0  0  0  0
  2  3  2  0  0  0  0
  4  1  1  0  0  0  0
  6  5  1  6  0  0  0
  7 27  1  1  0  0  0
  7  6  1  0  0  0  0
  8  7  1  6  0  0  0
  8 13  1  0  0  0  0
  9 14  1  6  0  0  0
  9 16  1  0  0  0  0
  9 11  1  0  0  0  0
 10  9  1  0  0  0  0
 10 12  1  0  0  0  0
 11  8  1  0  0  0  0
 12 20  1  6  0  0  0
 12 13  1  0  0  0  0
 13 22  1  1  0  0  0
 15 14  1  0  0  0  0
 16 17  2  0  0  0  0
 18 16  1  0  0  0  0
 19 18  1  0  0  0  0
 21 20  1  0  0  0  0
 22 23  1  0  0  0  0
 22 24  1  0  0  0  0
 23 25  1  0  0  0  0
 26 23  2  0  0  0  0
 28 27  1  0  0  0  0
 29  6  1  0  0  0  0
 30 29  1  0  0  0  0
 31 32  1  0  0  0  0
 31  2  1  0  0  0  0
 33 32  1  0  0  0  0
 33 34  2  0  0  0  0
 35 37  2  0  0  0  0
 35 33  1  0  0  0  0
 36 34  1  0  0  0  0
 36 38  1  0  0  0  0
 37 36  1  0  0  0  0
 39 38  1  0  0  0  0
 40 39  1  0  0  0  0
 40 43  1  0  0  0  0
 41 40  1  0  0  0  0
 42 41  1  0  0  0  0
 44 43  1  0  0  0  0
 45 46  1  0  0  0  0
 47 46  1  0  0  0  0
 47 48  1  0  0  0  0
 49 48  1  0  0  0  0
 49 50  1  0  0  0  0
M  END
>  <REMARK>
 VINA RESULT:    -3.608      8.497     13.486
 INTER + INTRA:         -14.246
 INTER:                  -8.426
 INTRA:                  -5.821
 UNBOUND:                -7.158
 SMILES CCN(CC)CCn1cc(COC(=O)NC[C@@H](O)C(O)[C@@H]2O[C@@](O)(C(=O)O)C[C@H](O)[C@H]2NC(C)=O)nn1
 SMILES IDX 15 1 13 2 14 3 16 5 17 6 19 7 21 8 23 9 28 10 22 11 29 12
 SMILES IDX 31 13 24 14 25 16 26 17 27 18 30 20 32 22 33 23 34 25 35 26
 SMILES IDX 20 27 18 29 12 31 11 32 10 33 9 34 36 35 8 36 37 37 7 38
 SMILES IDX 6 39 3 40 2 41 1 42 4 43 5 44
 H PARENT 15 4 24 15 27 19 30 21 32 24 20 28 18 30
 Flexibility Score: inf
  4 active torsions:
  status: ('A' for Active; 'I' for Inactive)
    1  A    between atoms: CA   and  CB  
    2  A    between atoms: CB   and  CG  
    3  A    between atoms: CG   and  CD  
    4  A    between atoms: CD   and  CE  

>  <TORSDO>
F 19

>  <BEGIN_>
RES LYS A 131

$$$$
ligand_17_pose_10_2HRL.pdbqt
 OpenBabel07062320523D

  6  5  0  0  0  0  0  0  0  0999 V2000
   33.1930   34.6630    9.2900 C   0  0  0  0  0  0  0  0  0  0  0  0
   32.0600   35.3600   10.0340 C   0  0  0  0  0  0  0  0  0  0  0  0
   30.7350   35.2860    9.3200 C   0  0  0  0  0  0  0  0  0  0  0  0
   29.5870   35.4940   10.2950 C   0  0  0  0  0  0  0  0  0  0  0  0
   29.9460   36.5500   11.3230 C   0  0  0  0  0  0  0  0  0  0  0  0
   29.6400   36.0810   12.7030 N   0  0  0  0  0  0  0  0  0  0  0  0
  1  2  1  0  0  0  0
  3  2  1  0  0  0  0
  3  4  1  0  0  0  0
  4  5  1  0  0  0  0
  5  6  1  0  0  0  0
M  END
>  <EGIN_R>
ES LYS A 135

>  <REMARK>
  4 active torsions:
  status: ('A' for Active; 'I' for Inactive)
    5  A    between atoms: CA   and  CB  
    6  A    between atoms: CB   and  CG  
    7  A    between atoms: CG   and  CD  
    8  A    between atoms: CD   and  CE  

$$$$
