ligand_31_pose_4_2HRL.pdbqt
 OpenBabel07062320523D

 57 58  0  0  1  0  0  0  0  0999 V2000
   29.3730   35.0690    9.4420 O   0  0  0  0  0  0  0  0  0  0  0  0
   28.7640   35.2050    8.1990 C   0  0  0  0  0  0  0  0  0  0  0  0
   29.3180   35.9000    7.1150 N   0  0  0  0  0  0  0  0  0  0  0  0
   30.2380   36.3530    7.2110 H   0  0  0  0  0  0  0  0  0  0  0  0
   27.6370   34.6630    8.0470 O   0  0  0  0  0  0  0  0  0  0  0  0
   28.5880   35.9810    5.8460 C   0  0  0  0  0  0  0  0  0  0  0  0
   28.7360   37.3710    5.2880 C   0  0  2  0  0  0  0  0  0  0  0  0
   29.1510   38.3690    6.3330 C   0  0  1  0  0  0  0  0  0  0  0  0
   30.0230   39.4600    5.7820 C   0  0  2  0  0  0  0  0  0  0  0  0
   31.9940   40.5810    6.3440 C   0  0  2  0  0  0  0  0  0  0  0  0
   31.5930   41.7730    5.5380 C   0  0  0  0  0  0  0  0  0  0  0  0
   30.9780   39.7830    6.7620 O   0  0  0  0  0  0  0  0  0  0  0  0
   30.3090   41.6610    4.8220 C   0  0  1  0  0  0  0  0  0  0  0  0
   29.3060   40.7620    5.5210 C   0  0  1  0  0  0  0  0  0  0  0  0
   32.5920   41.1070    7.5190 O   0  0  0  0  0  0  0  0  0  0  0  0
   33.2380   41.8210    7.2940 H   0  0  0  0  0  0  0  0  0  0  0  0
   33.0350   39.7580    5.6800 C   0  0  0  0  0  0  0  0  0  0  0  0
   33.2080   39.7940    4.4290 O   0  0  0  0  0  0  0  0  0  0  0  0
   33.8750   38.9010    6.3810 O   0  0  0  0  0  0  0  0  0  0  0  0
   33.7550   38.7800    7.3810 H   0  0  0  0  0  0  0  0  0  0  0  0
   29.7480   42.9430    4.6420 O   0  0  0  0  0  0  0  0  0  0  0  0
   29.1620   43.1900    5.3860 H   0  0  0  0  0  0  0  0  0  0  0  0
   28.1030   40.6660    4.7680 N   0  0  0  0  0  0  0  0  0  0  0  0
   26.9000   41.2080    5.3200 C   0  0  0  0  0  0  0  0  0  0  0  0
   28.0270   40.2330    3.8240 H   0  0  0  0  0  0  0  0  0  0  0  0
   25.6000   41.1600    4.6180 C   0  0  0  0  0  0  0  0  0  0  0  0
   26.9270   41.7580    6.4600 O   0  0  0  0  0  0  0  0  0  0  0  0
   28.1040   38.8230    7.1150 O   0  0  0  0  0  0  0  0  0  0  0  0
   28.2760   38.7660    8.0890 H   0  0  0  0  0  0  0  0  0  0  0  0
   27.4270   37.7640    4.8980 O   0  0  0  0  0  0  0  0  0  0  0  0
   27.5580   38.1430    3.9750 H   0  0  0  0  0  0  0  0  0  0  0  0
   28.7560   35.5450   10.6200 C   0  0  0  0  0  0  0  0  0  0  0  0
   28.6730   37.0200   10.5360 C   0  0  0  0  0  0  0  0  0  0  0  0
   27.7950   37.8360   11.1960 C   0  0  0  0  0  0  0  0  0  0  0  0
   29.4550   37.8160    9.7900 N   0  0  0  0  0  0  0  0  0  0  0  0
   28.0670   39.1030   10.8340 N   0  0  0  0  0  0  0  0  0  0  0  0
   29.0770   39.0860    9.9790 N   0  0  0  0  0  0  0  0  0  0  0  0
   27.3830   40.3160   11.2890 C   0  0  0  0  0  0  0  0  0  0  0  0
   27.0060   41.1080   10.0640 C   0  0  0  0  0  0  0  0  0  0  0  0
   26.5720   40.2080    9.0270 N   0  0  0  0  0  0  0  0  0  0  0  0
   25.2170   39.9240    8.7340 C   0  0  0  0  0  0  0  0  0  0  0  0
   27.2910   39.7120    8.4280 H   0  0  0  0  0  0  0  0  0  0  0  0
   24.3220   40.4980    9.4240 O   0  0  0  0  0  0  0  0  0  0  0  0
   24.8900   39.0190    7.6910 N   0  0  0  0  0  0  0  0  0  0  0  0
   25.6010   38.5360    7.1130 H   0  0  0  0  0  0  0  0  0  0  0  0
   23.4940   38.7540    7.4210 C   0  0  0  0  0  0  0  0  0  0  0  0
   23.1390   37.4540    8.0290 C   0  0  0  0  0  0  0  0  0  0  0  0
   21.9300   36.8010    7.8110 C   0  0  0  0  0  0  0  0  0  0  0  0
   23.8610   36.7360    8.8300 O   0  0  0  0  0  0  0  0  0  0  0  0
   22.0020   35.6410    8.5510 C   0  0  0  0  0  0  0  0  0  0  0  0
   23.2350   35.6520    9.1700 C   0  0  0  0  0  0  0  0  0  0  0  0
   29.8670   25.5550   16.9770 C   0  0  0  0  0  0  0  0  0  0  0  0
   28.3450   25.7220   17.0260 C   0  0  0  0  0  0  0  0  0  0  0  0
   27.5990   24.4700   16.5920 C   0  0  0  0  0  0  0  0  0  0  0  0
   26.9930   23.7390   17.7580 C   0  0  0  0  0  0  0  0  0  0  0  0
   26.2180   24.7220   18.6290 C   0  0  0  0  0  0  0  0  0  0  0  0
   25.4740   24.0020   19.6890 N   0  0  0  0  0  0  0  0  0  0  0  0
  1 32  1  0  0  0  0
  2  1  1  0  0  0  0
  3  4  1  0  0  0  0
  3  2  1  0  0  0  0
  5  2  2  0  0  0  0
  6  3  1  0  0  0  0
  7  6  1  1  0  0  0
  7  8  1  0  0  0  0
  8 28  1  6  0  0  0
  9  8  1  1  0  0  0
  9 12  1  0  0  0  0
 10 17  1  6  0  0  0
 10 12  1  0  0  0  0
 10 15  1  0  0  0  0
 11 10  1  0  0  0  0
 13 21  1  1  0  0  0
 13 14  1  0  0  0  0
 13 11  1  0  0  0  0
 14 23  1  6  0  0  0
 14  9  1  0  0  0  0
 16 15  1  0  0  0  0
 17 19  1  0  0  0  0
 18 17  2  0  0  0  0
 19 20  1  0  0  0  0
 21 22  1  0  0  0  0
 23 24  1  0  0  0  0
 24 27  2  0  0  0  0
 25 23  1  0  0  0  0
 26 24  1  0  0  0  0
 28 29  1  0  0  0  0
 30  7  1  0  0  0  0
 31 30  1  0  0  0  0
 33 32  1  0  0  0  0
 33 34  2  0  0  0  0
 35 37  2  0  0  0  0
 35 33  1  0  0  0  0
 36 34  1  0  0  0  0
 36 38  1  0  0  0  0
 37 36  1  0  0  0  0
 39 38  1  0  0  0  0
 40 39  1  0  0  0  0
 41 40  1  0  0  0  0
 41 43  2  0  0  0  0
 42 40  1  0  0  0  0
 44 41  1  0  0  0  0
 45 44  1  0  0  0  0
 46 44  1  0  0  0  0
 46 47  1  0  0  0  0
 47 49  1  0  0  0  0
 48 47  2  0  0  0  0
 48 50  1  0  0  0  0
 49 51  1  0  0  0  0
 50 51  2  0  0  0  0
 52 53  1  0  0  0  0
 54 53  1  0  0  0  0
 54 55  1  0  0  0  0
 55 56  1  0  0  0  0
 56 57  1  0  0  0  0
M  END
>  <REMARK>
 VINA RESULT:    -5.097      8.452     14.959
 INTER + INTRA:         -15.922
 INTER:                  -9.265
 INTRA:                  -6.658
 UNBOUND:                -5.909
 SMILES CC(=O)N[C@@H]1[C@@H](O)C[C@](O)(C(=O)O)O[C@H]1C(O)[C@H](O)CNC(=O)OCc1cn(CCNC(=O)NCc2ccco2)nn1
 SMILES IDX 24 1 22 2 21 3 23 5 20 6 18 7 16 8 15 9 9 10 8 11 14 12 6 13
 SMILES IDX 5 14 10 15 11 17 12 18 13 19 7 21 4 23 2 24 1 26 3 27 17 28
 SMILES IDX 19 30 25 32 26 33 27 34 42 35 28 36 41 37 29 38 30 39 31 40
 SMILES IDX 32 41 33 43 34 44 35 46 36 47 37 48 40 49 38 50 39 51
 H PARENT 21 4 10 16 13 20 7 22 4 25 17 29 19 31 31 42 34 45
 Flexibility Score: inf
  4 active torsions:
  status: ('A' for Active; 'I' for Inactive)
    1  A    between atoms: CA   and  CB  
    2  A    between atoms: CB   and  CG  
    3  A    between atoms: CG   and  CD  
    4  A    between atoms: CD   and  CE  

>  <TORSDO>
F 19

>  <BEGIN_>
RES LYS A 131

$$$$
ligand_31_pose_4_2HRL.pdbqt
 OpenBabel07062320523D

  6  5  0  0  0  0  0  0  0  0999 V2000
   33.1930   34.6630    9.2900 C   0  0  0  0  0  0  0  0  0  0  0  0
   32.0600   35.3600   10.0340 C   0  0  0  0  0  0  0  0  0  0  0  0
   32.5340   36.2710   11.1370 C   0  0  0  0  0  0  0  0  0  0  0  0
   32.0720   35.7580   12.4920 C   0  0  0  0  0  0  0  0  0  0  0  0
   31.3360   36.8460   13.2500 C   0  0  0  0  0  0  0  0  0  0  0  0
   31.4410   38.1550   12.5480 N   0  0  0  0  0  0  0  0  0  0  0  0
  1  2  1  0  0  0  0
  2  3  1  0  0  0  0
  3  4  1  0  0  0  0
  4  5  1  0  0  0  0
  6  5  1  0  0  0  0
M  END
>  <EGIN_R>
ES LYS A 135

>  <REMARK>
  4 active torsions:
  status: ('A' for Active; 'I' for Inactive)
    5  A    between atoms: CA   and  CB  
    6  A    between atoms: CB   and  CG  
    7  A    between atoms: CG   and  CD  
    8  A    between atoms: CD   and  CE  

$$$$
