ligand_3_pose_2_2HRL.pdbqt
 OpenBabel07062320523D

 49 50  0  0  1  0  0  0  0  0999 V2000
   30.4140   26.8190   21.4110 C   0  0  0  0  0  0  0  0  0  0  0  0
   31.7310   27.5700   21.4220 C   0  0  2  0  0  0  0  0  0  0  0  0
   31.6770   28.7900   22.3140 C   0  0  1  0  0  0  0  0  0  0  0  0
   32.6260   29.8600   21.8880 C   0  0  2  0  0  0  0  0  0  0  0  0
   34.5680   29.6800   23.1980 C   0  0  2  0  0  0  0  0  0  0  0  0
   34.1390   30.7590   24.1290 C   0  0  0  0  0  0  0  0  0  0  0  0
   33.9340   29.5760   22.0180 O   0  0  0  0  0  0  0  0  0  0  0  0
   32.7450   31.2670   23.9080 C   0  0  1  0  0  0  0  0  0  0  0  0
   32.3150   31.2050   22.4770 C   0  0  1  0  0  0  0  0  0  0  0  0
   34.4000   28.4640   23.8940 O   0  0  0  0  0  0  0  0  0  0  0  0
   35.0250   27.8060   23.4770 H   0  0  0  0  0  0  0  0  0  0  0  0
   36.0290   29.7870   22.9390 C   0  0  0  0  0  0  0  0  0  0  0  0
   36.8140   28.8260   23.0950 O   0  0  0  0  0  0  0  0  0  0  0  0
   36.5610   30.9830   22.5100 O   0  0  0  0  0  0  0  0  0  0  0  0
   36.5020   31.3270   21.5590 H   0  0  0  0  0  0  0  0  0  0  0  0
   31.8370   30.5550   24.7110 O   0  0  0  0  0  0  0  0  0  0  0  0
   31.7580   30.9310   25.6090 H   0  0  0  0  0  0  0  0  0  0  0  0
   33.1060   32.1930   21.7380 N   0  0  0  0  0  0  0  0  0  0  0  0
   32.5420   33.4190   21.2920 C   0  0  0  0  0  0  0  0  0  0  0  0
   34.1100   32.0250   21.5170 H   0  0  0  0  0  0  0  0  0  0  0  0
   33.3270   34.4340   20.5410 C   0  0  0  0  0  0  0  0  0  0  0  0
   31.3320   33.6940   21.5210 O   0  0  0  0  0  0  0  0  0  0  0  0
   30.3470   29.2380   22.2440 O   0  0  0  0  0  0  0  0  0  0  0  0
   30.3290   29.8480   21.4470 H   0  0  0  0  0  0  0  0  0  0  0  0
   32.1710   27.8410   20.1380 O   0  0  0  0  0  0  0  0  0  0  0  0
   32.3150   28.7950   19.9720 H   0  0  0  0  0  0  0  0  0  0  0  0
   29.5990   27.1060   20.2720 N   0  0  0  0  0  0  0  0  0  0  0  0
   28.2000   27.3410   20.3440 C   0  0  0  0  0  0  0  0  0  0  0  0
   30.0270   27.1550   19.3180 H   0  0  0  0  0  0  0  0  0  0  0  0
   27.5950   27.3080   21.4230 O   0  0  0  0  0  0  0  0  0  0  0  0
   27.4530   27.6150   19.2030 O   0  0  0  0  0  0  0  0  0  0  0  0
   26.9650   28.9280   18.9740 C   0  0  0  0  0  0  0  0  0  0  0  0
   28.1370   29.8300   18.9100 C   0  0  0  0  0  0  0  0  0  0  0  0
   28.5800   30.5440   17.8190 C   0  0  0  0  0  0  0  0  0  0  0  0
   28.9760   30.1010   19.9300 N   0  0  0  0  0  0  0  0  0  0  0  0
   29.6670   31.2160   18.2280 N   0  0  0  0  0  0  0  0  0  0  0  0
   29.8940   30.9420   19.4960 N   0  0  0  0  0  0  0  0  0  0  0  0
   30.4420   32.0830   17.4080 C   0  0  0  0  0  0  0  0  0  0  0  0
   30.6950   31.7270   16.0950 C   0  0  0  0  0  0  0  0  0  0  0  0
   30.9420   33.2700   17.9120 C   0  0  0  0  0  0  0  0  0  0  0  0
   31.4510   32.5930   15.3260 C   0  0  0  0  0  0  0  0  0  0  0  0
   31.6900   34.1170   17.1340 C   0  0  0  0  0  0  0  0  0  0  0  0
   31.9450   33.7690   15.8260 C   0  0  0  0  0  0  0  0  0  0  0  0
   29.8670   25.5550   16.9770 C   0  0  0  0  0  0  0  0  0  0  0  0
   28.3450   25.7220   17.0260 C   0  0  0  0  0  0  0  0  0  0  0  0
   27.6020   24.4000   16.9120 C   0  0  0  0  0  0  0  0  0  0  0  0
   26.7070   24.1500   18.0950 C   0  0  0  0  0  0  0  0  0  0  0  0
   25.4060   24.9270   17.9230 C   0  0  0  0  0  0  0  0  0  0  0  0
   24.5680   24.3080   16.8680 N   0  0  0  0  0  0  0  0  0  0  0  0
  2  1  1  6  0  0  0
  2  3  1  0  0  0  0
  3 23  1  6  0  0  0
  4  7  1  0  0  0  0
  4  3  1  1  0  0  0
  4  9  1  0  0  0  0
  5 12  1  6  0  0  0
  5 10  1  0  0  0  0
  5  6  1  0  0  0  0
  7  5  1  0  0  0  0
  8  6  1  0  0  0  0
  8 16  1  1  0  0  0
  9 18  1  6  0  0  0
  9  8  1  0  0  0  0
 11 10  1  0  0  0  0
 12 13  2  0  0  0  0
 14 12  1  0  0  0  0
 15 14  1  0  0  0  0
 16 17  1  0  0  0  0
 19 22  2  0  0  0  0
 19 18  1  0  0  0  0
 20 18  1  0  0  0  0
 21 19  1  0  0  0  0
 24 23  1  0  0  0  0
 25  2  1  0  0  0  0
 26 25  1  0  0  0  0
 27 28  1  0  0  0  0
 27  1  1  0  0  0  0
 28 30  2  0  0  0  0
 29 27  1  0  0  0  0
 31 28  1  0  0  0  0
 32 31  1  0  0  0  0
 33 32  1  0  0  0  0
 33 35  1  0  0  0  0
 34 36  1  0  0  0  0
 34 33  2  0  0  0  0
 36 37  1  0  0  0  0
 37 35  2  0  0  0  0
 38 40  1  0  0  0  0
 38 36  1  0  0  0  0
 39 38  2  0  0  0  0
 41 43  2  0  0  0  0
 41 39  1  0  0  0  0
 42 40  2  0  0  0  0
 43 42  1  0  0  0  0
 44 45  1  0  0  0  0
 46 45  1  0  0  0  0
 46 47  1  0  0  0  0
 48 47  1  0  0  0  0
 49 48  1  0  0  0  0
M  END
>  <REMARK>
 VINA RESULT:    -5.902      9.936     15.940
 INTER + INTRA:         -14.700
 INTER:                  -8.903
 INTRA:                  -5.796
 UNBOUND:                -4.485
 SMILES CC(=O)N[C@@H]1[C@@H](O)C[C@](O)(C(=O)O)O[C@H]1C(O)[C@H](O)CNC(=O)OCc1cn(-c2ccccc2)nn1
 SMILES IDX 20 1 18 2 16 3 15 4 9 5 8 6 14 7 6 8 5 9 10 10 11 12 12 13
 SMILES IDX 13 14 7 16 4 18 2 19 1 21 3 22 17 23 19 25 21 27 22 28 23 30
 SMILES IDX 24 31 25 32 26 33 27 34 36 35 28 36 35 37 29 38 30 39 34 40
 SMILES IDX 31 41 33 42 32 43
 H PARENT 10 11 13 15 7 17 4 20 17 24 19 26 21 29
 Flexibility Score: inf
  4 active torsions:
  status: ('A' for Active; 'I' for Inactive)
    1  A    between atoms: CA   and  CB  
    2  A    between atoms: CB   and  CG  
    3  A    between atoms: CG   and  CD  
    4  A    between atoms: CD   and  CE  

>  <TORSDO>
F 15

>  <BEGIN_>
RES LYS A 131

$$$$
ligand_3_pose_2_2HRL.pdbqt
 OpenBabel07062320523D

  6  5  0  0  0  0  0  0  0  0999 V2000
   33.1930   34.6630    9.2900 C   0  0  0  0  0  0  0  0  0  0  0  0
   32.0600   35.3600   10.0340 C   0  0  0  0  0  0  0  0  0  0  0  0
   30.7930   35.4780    9.2270 C   0  0  0  0  0  0  0  0  0  0  0  0
   29.8780   34.2920    9.4880 C   0  0  0  0  0  0  0  0  0  0  0  0
   28.5550   34.4700    8.7670 C   0  0  0  0  0  0  0  0  0  0  0  0
   27.4640   33.7280    9.4570 N   0  0  0  0  0  0  0  0  0  0  0  0
  1  2  1  0  0  0  0
  3  4  1  0  0  0  0
  3  2  1  0  0  0  0
  5  6  1  0  0  0  0
  5  4  1  0  0  0  0
M  END
>  <EGIN_R>
ES LYS A 135

>  <REMARK>
  4 active torsions:
  status: ('A' for Active; 'I' for Inactive)
    5  A    between atoms: CA   and  CB  
    6  A    between atoms: CB   and  CG  
    7  A    between atoms: CG   and  CD  
    8  A    between atoms: CD   and  CE  

$$$$
