ligand_61_pose_7_2HRL.pdbqt
 OpenBabel07062320523D

 49 50  0  0  1  0  0  0  0  0999 V2000
   27.7420   28.7940   17.6490 N   0  0  0  0  0  0  0  0  0  0  0  0
   27.1210   29.4450   16.5580 C   0  0  0  0  0  0  0  0  0  0  0  0
   25.8990   29.2620   16.3540 O   0  0  0  0  0  0  0  0  0  0  0  0
   28.7840   28.9900   17.7750 H   0  0  0  0  0  0  0  0  0  0  0  0
   27.0650   27.9070   18.5700 C   0  0  0  0  0  0  0  0  0  0  0  0
   27.8330   27.8580   19.8510 C   0  0  2  0  0  0  0  0  0  0  0  0
   28.7590   29.0380   20.0610 C   0  0  2  0  0  0  0  0  0  0  0  0
   29.9580   28.5860   20.8260 C   0  0  2  0  0  0  0  0  0  0  0  0
   30.7120   27.9060   22.9020 C   0  0  2  0  0  0  0  0  0  0  0  0
   32.0520   27.9160   22.2070 C   0  0  0  0  0  0  0  0  0  0  0  0
   29.6510   27.9640   22.0200 O   0  0  0  0  0  0  0  0  0  0  0  0
   32.2640   29.1220   21.3530 C   0  0  1  0  0  0  0  0  0  0  0  0
   30.9190   29.7570   21.0730 C   0  0  1  0  0  0  0  0  0  0  0  0
   30.6400   28.8700   23.9090 O   0  0  0  0  0  0  0  0  0  0  0  0
   29.8030   28.7600   24.4160 H   0  0  0  0  0  0  0  0  0  0  0  0
   30.6140   26.5700   23.5950 C   0  0  0  0  0  0  0  0  0  0  0  0
   31.3440   26.2430   24.5390 O   0  0  0  0  0  0  0  0  0  0  0  0
   29.6590   25.6550   23.1560 O   0  0  0  0  0  0  0  0  0  0  0  0
   28.6830   25.7050   23.4210 H   0  0  0  0  0  0  0  0  0  0  0  0
   33.1790   30.0180   21.8620 O   0  0  0  0  0  0  0  0  0  0  0  0
   32.7980   30.9480   21.9210 H   0  0  0  0  0  0  0  0  0  0  0  0
   30.9410   30.6260   19.9250 N   0  0  0  0  0  0  0  0  0  0  0  0
   30.8790   32.0480   20.0790 C   0  0  0  0  0  0  0  0  0  0  0  0
   31.0020   30.2590   18.9500 H   0  0  0  0  0  0  0  0  0  0  0  0
   30.8960   32.9970   18.9630 C   0  0  0  0  0  0  0  0  0  0  0  0
   30.8040   32.5190   21.2620 O   0  0  0  0  0  0  0  0  0  0  0  0
   28.0400   29.9740   20.8060 O   0  0  0  0  0  0  0  0  0  0  0  0
   27.4310   30.4730   20.2080 H   0  0  0  0  0  0  0  0  0  0  0  0
   28.6520   26.7180   19.8060 O   0  0  0  0  0  0  0  0  0  0  0  0
   29.1820   26.6630   18.9820 H   0  0  0  0  0  0  0  0  0  0  0  0
   27.8840   30.2870   15.7240 O   0  0  0  0  0  0  0  0  0  0  0  0
   27.9660   31.6410   16.1470 C   0  0  0  0  0  0  0  0  0  0  0  0
   29.2390   32.1940   15.6620 C   0  0  0  0  0  0  0  0  0  0  0  0
   29.4410   33.3630   14.9450 C   0  0  0  0  0  0  0  0  0  0  0  0
   30.4590   31.6430   15.8380 N   0  0  0  0  0  0  0  0  0  0  0  0
   30.7610   33.4510   14.7300 N   0  0  0  0  0  0  0  0  0  0  0  0
   31.3800   32.4170   15.2660 N   0  0  0  0  0  0  0  0  0  0  0  0
   31.4110   34.5160   14.0180 C   0  0  0  0  0  0  0  0  0  0  0  0
   32.0890   35.4770   14.9940 C   0  0  0  0  0  0  0  0  0  0  0  0
   33.3210   35.2670   15.4440 C   0  0  0  0  0  0  0  0  0  0  0  0
   31.3820   36.5850   15.4020 C   0  0  0  0  0  0  0  0  0  0  0  0
   33.8890   36.1560   16.3160 C   0  0  0  0  0  0  0  0  0  0  0  0
   32.5860   37.3870   16.5210 S   0  0  0  0  0  0  0  0  0  0  0  0
   29.8670   25.5550   16.9770 C   0  0  0  0  0  0  0  0  0  0  0  0
   28.3450   25.7220   17.0260 C   0  0  0  0  0  0  0  0  0  0  0  0
   27.6010   24.4050   16.8700 C   0  0  0  0  0  0  0  0  0  0  0  0
   26.1850   24.4920   17.3680 C   0  0  0  0  0  0  0  0  0  0  0  0
   26.0900   23.8480   18.7480 C   0  0  0  0  0  0  0  0  0  0  0  0
   25.4570   24.7780   19.7120 N   0  0  0  0  0  0  0  0  0  0  0  0
  1  4  1  0  0  0  0
  1  5  1  0  0  0  0
  2  1  1  0  0  0  0
  3  2  2  0  0  0  0
  6  5  1  6  0  0  0
  6  7  1  0  0  0  0
  7 27  1  1  0  0  0
  8  7  1  1  0  0  0
  8 13  1  0  0  0  0
  8 11  1  0  0  0  0
  9 16  1  1  0  0  0
  9 14  1  0  0  0  0
 10  9  1  0  0  0  0
 11  9  1  0  0  0  0
 12 20  1  1  0  0  0
 12 10  1  0  0  0  0
 13 22  1  6  0  0  0
 13 12  1  0  0  0  0
 14 15  1  0  0  0  0
 16 17  2  0  0  0  0
 18 19  1  0  0  0  0
 18 16  1  0  0  0  0
 20 21  1  0  0  0  0
 22 23  1  0  0  0  0
 23 26  2  0  0  0  0
 24 22  1  0  0  0  0
 25 23  1  0  0  0  0
 28 27  1  0  0  0  0
 29  6  1  0  0  0  0
 30 29  1  0  0  0  0
 31 32  1  0  0  0  0
 31  2  1  0  0  0  0
 33 35  1  0  0  0  0
 33 32  1  0  0  0  0
 34 33  2  0  0  0  0
 36 34  1  0  0  0  0
 36 37  1  0  0  0  0
 37 35  2  0  0  0  0
 38 36  1  0  0  0  0
 38 39  1  0  0  0  0
 39 41  2  0  0  0  0
 39 40  1  0  0  0  0
 40 42  2  0  0  0  0
 41 43  1  0  0  0  0
 42 43  1  0  0  0  0
 44 45  1  0  0  0  0
 46 45  1  0  0  0  0
 46 47  1  0  0  0  0
 47 48  1  0  0  0  0
 48 49  1  0  0  0  0
M  END
>  <REMARK>
 VINA RESULT:    -4.301      6.829     11.693
 INTER + INTRA:         -13.832
 INTER:                  -8.835
 INTRA:                  -4.997
 UNBOUND:                -6.136
 SMILES CC(=O)N[C@@H]1[C@@H](O)C[C@](O)(C(=O)O)O[C@H]1C(O)[C@H](O)CNC(=O)OCc1cn(Cc2ccsc2)nn1
 SMILES IDX 21 1 22 2 23 3 20 5 18 6 16 7 15 8 9 9 8 10 14 11 6 12 5 13
 SMILES IDX 10 14 11 16 12 17 13 18 7 20 4 22 2 23 1 25 3 26 17 27 19 29
 SMILES IDX 24 31 25 32 26 33 27 34 36 35 28 36 35 37 29 38 30 39 31 40
 SMILES IDX 34 41 32 42 33 43
 H PARENT 21 4 10 15 13 19 7 21 4 24 17 28 19 30
 Flexibility Score: inf
  4 active torsions:
  status: ('A' for Active; 'I' for Inactive)
    1  A    between atoms: CA   and  CB  
    2  A    between atoms: CB   and  CG  
    3  A    between atoms: CG   and  CD  
    4  A    between atoms: CD   and  CE  

>  <TORSDO>
F 16

>  <BEGIN_>
RES LYS A 131

$$$$
ligand_61_pose_7_2HRL.pdbqt
 OpenBabel07062320523D

  6  5  0  0  0  0  0  0  0  0999 V2000
   33.1930   34.6630    9.2900 C   0  0  0  0  0  0  0  0  0  0  0  0
   32.0600   35.3600   10.0340 C   0  0  0  0  0  0  0  0  0  0  0  0
   30.7270   34.6750    9.8790 C   0  0  0  0  0  0  0  0  0  0  0  0
   30.3530   34.5530    8.4100 C   0  0  0  0  0  0  0  0  0  0  0  0
   28.8460   34.5620    8.2410 C   0  0  0  0  0  0  0  0  0  0  0  0
   28.1580   34.6010    9.5620 N   0  0  0  0  0  0  0  0  0  0  0  0
  1  2  1  0  0  0  0
  3  2  1  0  0  0  0
  4  3  1  0  0  0  0
  5  4  1  0  0  0  0
  5  6  1  0  0  0  0
M  END
>  <EGIN_R>
ES LYS A 135

>  <REMARK>
  4 active torsions:
  status: ('A' for Active; 'I' for Inactive)
    5  A    between atoms: CA   and  CB  
    6  A    between atoms: CB   and  CG  
    7  A    between atoms: CG   and  CD  
    8  A    between atoms: CD   and  CE  

$$$$
