ligand_70_pose_8_2HRL.pdbqt
 OpenBabel07062320523D

 53 55  0  0  1  0  0  0  0  0999 V2000
   30.5570   31.3000   16.2070 C   0  0  0  0  0  0  0  0  0  0  0  0
   29.2240   31.1020   15.5420 C   0  0  2  0  0  0  0  0  0  0  0  0
   28.0990   31.8550   16.1980 C   0  0  1  0  0  0  0  0  0  0  0  0
   27.1650   30.9990   17.0040 C   0  0  2  0  0  0  0  0  0  0  0  0
   27.2300   28.9340   18.0570 C   0  0  2  0  0  0  0  0  0  0  0  0
   25.7490   29.0470   18.3190 C   0  0  0  0  0  0  0  0  0  0  0  0
   27.8390   30.1480   17.8680 O   0  0  0  0  0  0  0  0  0  0  0  0
   25.0760   29.7940   17.2160 C   0  0  1  0  0  0  0  0  0  0  0  0
   26.1010   30.3390   16.1970 C   0  0  1  0  0  0  0  0  0  0  0  0
   27.4100   28.0370   17.0080 O   0  0  0  0  0  0  0  0  0  0  0  0
   26.5770   27.6420   16.6900 H   0  0  0  0  0  0  0  0  0  0  0  0
   27.8420   28.3090   19.2690 C   0  0  0  0  0  0  0  0  0  0  0  0
   27.9600   29.0180   20.3000 O   0  0  0  0  0  0  0  0  0  0  0  0
   28.2770   26.9970   19.2920 O   0  0  0  0  0  0  0  0  0  0  0  0
   28.3320   26.4650   18.4180 H   0  0  0  0  0  0  0  0  0  0  0  0
   24.1530   28.9710   16.5460 O   0  0  0  0  0  0  0  0  0  0  0  0
   24.5830   28.1180   16.3010 H   0  0  0  0  0  0  0  0  0  0  0  0
   25.4320   31.3720   15.4000 N   0  0  0  0  0  0  0  0  0  0  0  0
   24.7270   31.0920   14.2010 C   0  0  0  0  0  0  0  0  0  0  0  0
   25.4640   32.3600   15.7100 H   0  0  0  0  0  0  0  0  0  0  0  0
   24.0580   32.1550   13.4030 C   0  0  0  0  0  0  0  0  0  0  0  0
   24.6470   29.9150   13.7700 O   0  0  0  0  0  0  0  0  0  0  0  0
   28.6900   32.8520   17.0000 O   0  0  0  0  0  0  0  0  0  0  0  0
   29.0960   32.3850   17.7710 H   0  0  0  0  0  0  0  0  0  0  0  0
   28.9170   29.7300   15.4380 O   0  0  0  0  0  0  0  0  0  0  0  0
   27.9900   29.6560   15.8300 H   0  0  0  0  0  0  0  0  0  0  0  0
   31.3350   32.2530   15.4500 N   0  0  0  0  0  0  0  0  0  0  0  0
   31.7880   33.4780   15.9800 C   0  0  0  0  0  0  0  0  0  0  0  0
   31.6030   32.0680   14.4440 H   0  0  0  0  0  0  0  0  0  0  0  0
   31.5380   33.8170   17.1560 O   0  0  0  0  0  0  0  0  0  0  0  0
   32.5440   34.3880   15.2290 O   0  0  0  0  0  0  0  0  0  0  0  0
   32.3310   34.4990   13.8140 C   0  0  0  0  0  0  0  0  0  0  0  0
   31.0640   35.2070   13.5390 C   0  0  0  0  0  0  0  0  0  0  0  0
   29.8660   34.6790   13.1720 C   0  0  0  0  0  0  0  0  0  0  0  0
   30.9090   36.5330   13.6150 N   0  0  0  0  0  0  0  0  0  0  0  0
   29.0110   35.7330   13.0360 N   0  0  0  0  0  0  0  0  0  0  0  0
   29.6600   36.8410   13.3090 N   0  0  0  0  0  0  0  0  0  0  0  0
   27.6480   35.6580   12.6650 C   0  0  0  0  0  0  0  0  0  0  0  0
   26.6810   35.6460   13.6550 C   0  0  0  0  0  0  0  0  0  0  0  0
   27.3140   35.6000   11.3310 C   0  0  0  0  0  0  0  0  0  0  0  0
   25.3880   35.5740   13.3020 N   0  0  0  0  0  0  0  0  0  0  0  0
   25.9680   35.5250   10.9870 C   0  0  0  0  0  0  0  0  0  0  0  0
   25.0230   35.5150   11.9910 C   0  0  0  0  0  0  0  0  0  0  0  0
   25.6090   35.4660    9.6750 C   0  0  0  0  0  0  0  0  0  0  0  0
   23.6870   35.4410   11.6520 C   0  0  0  0  0  0  0  0  0  0  0  0
   24.2610   35.3920    9.3230 C   0  0  0  0  0  0  0  0  0  0  0  0
   23.3100   35.3810   10.3150 C   0  0  0  0  0  0  0  0  0  0  0  0
   29.8670   25.5550   16.9770 C   0  0  0  0  0  0  0  0  0  0  0  0
   28.3450   25.7220   17.0260 C   0  0  0  0  0  0  0  0  0  0  0  0
   27.6020   24.3980   16.9310 C   0  0  0  0  0  0  0  0  0  0  0  0
   26.1570   24.5310   17.3230 C   0  0  0  0  0  0  0  0  0  0  0  0
   25.9250   23.8270   18.6570 C   0  0  0  0  0  0  0  0  0  0  0  0
   25.5730   24.8110   19.7080 N   0  0  0  0  0  0  0  0  0  0  0  0
  2  3  1  0  0  0  0
  2  1  1  1  0  0  0
  3 23  1  1  0  0  0
  4  3  1  6  0  0  0
  4  7  1  0  0  0  0
  5 10  1  6  0  0  0
  5  6  1  0  0  0  0
  5 12  1  0  0  0  0
  7  5  1  0  0  0  0
  8 16  1  6  0  0  0
  8  6  1  0  0  0  0
  9 18  1  6  0  0  0
  9  4  1  0  0  0  0
  9  8  1  0  0  0  0
 11 10  1  0  0  0  0
 12 14  1  0  0  0  0
 12 13  2  0  0  0  0
 15 14  1  0  0  0  0
 17 16  1  0  0  0  0
 18 20  1  0  0  0  0
 19 18  1  0  0  0  0
 21 19  1  0  0  0  0
 22 19  2  0  0  0  0
 23 24  1  0  0  0  0
 25  2  1  0  0  0  0
 25 26  1  0  0  0  0
 27 28  1  0  0  0  0
 27  1  1  0  0  0  0
 28 30  2  0  0  0  0
 29 27  1  0  0  0  0
 31 28  1  0  0  0  0
 32 31  1  0  0  0  0
 33 35  1  0  0  0  0
 33 32  1  0  0  0  0
 34 33  2  0  0  0  0
 36 34  1  0  0  0  0
 36 37  1  0  0  0  0
 37 35  2  0  0  0  0
 38 36  1  0  0  0  0
 38 39  2  0  0  0  0
 40 38  1  0  0  0  0
 41 39  1  0  0  0  0
 42 40  2  0  0  0  0
 42 43  1  0  0  0  0
 43 41  2  0  0  0  0
 44 42  1  0  0  0  0
 45 43  1  0  0  0  0
 46 44  2  0  0  0  0
 46 47  1  0  0  0  0
 47 45  2  0  0  0  0
 48 49  1  0  0  0  0
 50 49  1  0  0  0  0
 50 51  1  0  0  0  0
 51 52  1  0  0  0  0
 52 53  1  0  0  0  0
M  END
>  <REMARK>
 VINA RESULT:    -6.014      4.317      7.859
 INTER + INTRA:         -14.942
 INTER:                  -9.767
 INTRA:                  -5.174
 UNBOUND:                -4.533
 SMILES CC(=O)N[C@@H]1[C@@H](O)C[C@](O)(C(=O)O)O[C@H]1C(O)[C@H](O)CNC(=O)OCc1cn(-c2cnc3ccccc3c2)nn1
 SMILES IDX 20 1 18 2 16 3 15 4 9 5 8 6 14 7 6 8 5 9 10 10 11 12 12 13
 SMILES IDX 13 14 7 16 4 18 2 19 1 21 3 22 17 23 19 25 21 27 22 28 23 30
 SMILES IDX 24 31 25 32 26 33 27 34 40 35 28 36 39 37 29 38 30 39 38 40
 SMILES IDX 31 41 37 42 32 43 36 44 33 45 35 46 34 47
 H PARENT 10 11 13 15 7 17 4 20 17 24 19 26 21 29
 Flexibility Score: inf
  4 active torsions:
  status: ('A' for Active; 'I' for Inactive)
    1  A    between atoms: CA   and  CB  
    2  A    between atoms: CB   and  CG  
    3  A    between atoms: CG   and  CD  
    4  A    between atoms: CD   and  CE  

>  <TORSDO>
F 15

>  <BEGIN_>
RES LYS A 131

$$$$
ligand_70_pose_8_2HRL.pdbqt
 OpenBabel07062320523D

  6  5  0  0  0  0  0  0  0  0999 V2000
   33.1930   34.6630    9.2900 C   0  0  0  0  0  0  0  0  0  0  0  0
   32.0600   35.3600   10.0340 C   0  0  0  0  0  0  0  0  0  0  0  0
   30.6970   34.8000    9.7180 C   0  0  0  0  0  0  0  0  0  0  0  0
   30.2260   35.2750    8.3520 C   0  0  0  0  0  0  0  0  0  0  0  0
   28.8810   34.6620    8.0100 C   0  0  0  0  0  0  0  0  0  0  0  0
   28.2260   35.3950    6.8910 N   0  0  0  0  0  0  0  0  0  0  0  0
  1  2  1  0  0  0  0
  3  2  1  0  0  0  0
  4  3  1  0  0  0  0
  5  4  1  0  0  0  0
  6  5  1  0  0  0  0
M  END
>  <EGIN_R>
ES LYS A 135

>  <REMARK>
  4 active torsions:
  status: ('A' for Active; 'I' for Inactive)
    5  A    between atoms: CA   and  CB  
    6  A    between atoms: CB   and  CG  
    7  A    between atoms: CG   and  CD  
    8  A    between atoms: CD   and  CE  

$$$$
