ligand_33_pose_3_2HRL.pdbqt
 OpenBabel07062320523D

 52 52  0  0  1  0  0  0  0  0999 V2000
   25.7060   41.7850    8.1880 C   0  0  0  0  0  0  0  0  0  0  0  0
   24.3100   41.5640    8.0230 O   0  0  0  0  0  0  0  0  0  0  0  0
   23.7190   40.5520    8.7890 C   0  0  0  0  0  0  0  0  0  0  0  0
   23.3440   39.3460    8.1330 N   0  0  0  0  0  0  0  0  0  0  0  0
   23.5350   39.2730    7.0980 H   0  0  0  0  0  0  0  0  0  0  0  0
   23.5470   40.7600   10.0160 O   0  0  0  0  0  0  0  0  0  0  0  0
   22.7330   38.3010    8.8920 C   0  0  0  0  0  0  0  0  0  0  0  0
   21.2590   38.1090    8.6290 C   0  0  2  0  0  0  0  0  0  0  0  0
   21.0960   36.9260    7.6940 C   0  0  2  0  0  0  0  0  0  0  0  0
   20.9840   35.6040    8.3760 C   0  0  2  0  0  0  0  0  0  0  0  0
   18.6720   35.4600    8.0270 C   0  0  2  0  0  0  0  0  0  0  0  0
   18.5110   35.9270    9.4830 C   0  0  0  0  0  0  0  0  0  0  0  0
   19.9120   34.9210    7.8380 O   0  0  0  0  0  0  0  0  0  0  0  0
   19.5080   35.1120   10.2700 C   0  0  1  0  0  0  0  0  0  0  0  0
   20.9060   35.6130    9.8600 C   0  0  1  0  0  0  0  0  0  0  0  0
   18.3330   36.4930    7.1570 O   0  0  0  0  0  0  0  0  0  0  0  0
   18.8580   36.4360    6.2970 H   0  0  0  0  0  0  0  0  0  0  0  0
   17.6790   34.3720    7.8390 C   0  0  0  0  0  0  0  0  0  0  0  0
   18.0340   33.1620    7.9740 O   0  0  0  0  0  0  0  0  0  0  0  0
   16.3750   34.7040    7.5190 O   0  0  0  0  0  0  0  0  0  0  0  0
   15.7070   33.9210    7.4860 H   0  0  0  0  0  0  0  0  0  0  0  0
   19.3300   35.2510   11.6460 O   0  0  0  0  0  0  0  0  0  0  0  0
   19.8470   36.0540   11.9190 H   0  0  0  0  0  0  0  0  0  0  0  0
   21.9140   34.7580   10.4710 N   0  0  0  0  0  0  0  0  0  0  0  0
   22.5990   35.1030   11.6530 C   0  0  0  0  0  0  0  0  0  0  0  0
   22.1360   33.8340   10.0030 H   0  0  0  0  0  0  0  0  0  0  0  0
   23.6400   34.1970   12.2600 C   0  0  0  0  0  0  0  0  0  0  0  0
   22.3230   36.2100   12.2100 O   0  0  0  0  0  0  0  0  0  0  0  0
   22.3350   36.8800    6.9920 O   0  0  0  0  0  0  0  0  0  0  0  0
   22.6890   37.7990    7.0240 H   0  0  0  0  0  0  0  0  0  0  0  0
   20.7560   39.2850    8.1190 O   0  0  0  0  0  0  0  0  0  0  0  0
   19.7730   39.2460    8.0200 H   0  0  0  0  0  0  0  0  0  0  0  0
   26.3830   40.8640    7.2460 C   0  0  0  0  0  0  0  0  0  0  0  0
   27.6380   40.3330    7.4620 C   0  0  0  0  0  0  0  0  0  0  0  0
   25.9420   40.3930    6.0800 N   0  0  0  0  0  0  0  0  0  0  0  0
   27.8910   39.5550    6.3870 N   0  0  0  0  0  0  0  0  0  0  0  0
   26.8670   39.5960    5.5630 N   0  0  0  0  0  0  0  0  0  0  0  0
   29.1490   38.8170    6.2510 C   0  0  0  0  0  0  0  0  0  0  0  0
   28.8820   37.6110    5.3890 C   0  0  0  0  0  0  0  0  0  0  0  0
   28.8880   36.3150    6.1710 C   0  0  0  0  0  0  0  0  0  0  0  0
   27.5300   35.7210    6.3120 C   0  0  0  0  0  0  0  0  0  0  0  0
   26.9700   35.7970    7.7060 C   0  0  0  0  0  0  0  0  0  0  0  0
   26.0820   36.9480    7.9300 C   0  0  0  0  0  0  0  0  0  0  0  0
   26.0090   37.4980    9.0410 O   0  0  0  0  0  0  0  0  0  0  0  0
   25.2920   37.4570    6.8860 O   0  0  0  0  0  0  0  0  0  0  0  0
   25.7150   37.6690    5.9760 H   0  0  0  0  0  0  0  0  0  0  0  0
   29.8670   25.5550   16.9770 C   0  0  0  0  0  0  0  0  0  0  0  0
   28.3450   25.7220   17.0260 C   0  0  0  0  0  0  0  0  0  0  0  0
   27.6010   24.4020   16.8900 C   0  0  0  0  0  0  0  0  0  0  0  0
   26.6580   24.1630   18.0360 C   0  0  0  0  0  0  0  0  0  0  0  0
   25.5340   23.2360   17.5860 C   0  0  0  0  0  0  0  0  0  0  0  0
   24.4770   24.0050   16.8860 N   0  0  0  0  0  0  0  0  0  0  0  0
  2  1  1  0  0  0  0
  2  3  1  0  0  0  0
  3  6  2  0  0  0  0
  4  3  1  0  0  0  0
  4  7  1  0  0  0  0
  5  4  1  0  0  0  0
  8  7  1  6  0  0  0
  9 29  1  6  0  0  0
  9  8  1  0  0  0  0
 10  9  1  6  0  0  0
 10 15  1  0  0  0  0
 11 16  1  6  0  0  0
 11 12  1  0  0  0  0
 12 14  1  0  0  0  0
 13 11  1  0  0  0  0
 13 10  1  0  0  0  0
 14 22  1  1  0  0  0
 15 14  1  0  0  0  0
 15 24  1  1  0  0  0
 17 16  1  0  0  0  0
 18 19  2  0  0  0  0
 18 11  1  0  0  0  0
 20 18  1  0  0  0  0
 21 20  1  0  0  0  0
 22 23  1  0  0  0  0
 24 25  1  0  0  0  0
 25 28  2  0  0  0  0
 25 27  1  0  0  0  0
 26 24  1  0  0  0  0
 29 30  1  0  0  0  0
 31  8  1  0  0  0  0
 32 31  1  0  0  0  0
 33 34  2  0  0  0  0
 33  1  1  0  0  0  0
 35 33  1  0  0  0  0
 36 34  1  0  0  0  0
 37 35  2  0  0  0  0
 37 36  1  0  0  0  0
 38 36  1  0  0  0  0
 39 40  1  0  0  0  0
 39 38  1  0  0  0  0
 40 41  1  0  0  0  0
 41 42  1  0  0  0  0
 42 43  1  0  0  0  0
 43 44  2  0  0  0  0
 45 43  1  0  0  0  0
 46 45  1  0  0  0  0
 47 48  1  0  0  0  0
 49 48  1  0  0  0  0
 49 50  1  0  0  0  0
 51 50  1  0  0  0  0
 52 51  1  0  0  0  0
M  END
>  <REMARK>
 VINA RESULT:    -4.491      1.739      2.810
 INTER + INTRA:         -15.135
 INTER:                  -8.817
 INTRA:                  -6.318
 UNBOUND:                -5.918
 SMILES CC(=O)N[C@@H]1[C@@H](O)C[C@](O)(C(=O)O)O[C@H]1C(O)[C@H](O)CNC(=O)OCc1cn(CCCCCC(=O)O)nn1
 SMILES IDX 25 1 24 2 22 3 21 4 23 6 20 7 18 8 16 9 15 10 9 11 8 12
 SMILES IDX 14 13 6 14 5 15 10 16 11 18 12 19 13 20 7 22 4 24 2 25 1 27
 SMILES IDX 3 28 17 29 19 31 26 33 27 34 38 35 28 36 37 37 29 38 30 39
 SMILES IDX 31 40 32 41 33 42 34 43 35 44 36 45
 H PARENT 21 5 10 17 13 21 7 23 4 26 17 30 19 32 36 46
 Flexibility Score: inf
  4 active torsions:
  status: ('A' for Active; 'I' for Inactive)
    1  A    between atoms: CA   and  CB  
    2  A    between atoms: CB   and  CG  
    3  A    between atoms: CG   and  CD  
    4  A    between atoms: CD   and  CE  

>  <TORSDO>
F 21

>  <BEGIN_>
RES LYS A 131

$$$$
ligand_33_pose_3_2HRL.pdbqt
 OpenBabel07062320523D

  6  5  0  0  0  0  0  0  0  0999 V2000
   33.1930   34.6630    9.2900 C   0  0  0  0  0  0  0  0  0  0  0  0
   32.0600   35.3600   10.0340 C   0  0  0  0  0  0  0  0  0  0  0  0
   30.7910   35.4750    9.2290 C   0  0  0  0  0  0  0  0  0  0  0  0
   30.1340   34.1130    9.0660 C   0  0  0  0  0  0  0  0  0  0  0  0
   28.8760   34.0250    9.9090 C   0  0  0  0  0  0  0  0  0  0  0  0
   28.7070   35.2420   10.7490 N   0  0  0  0  0  0  0  0  0  0  0  0
  1  2  1  0  0  0  0
  3  2  1  0  0  0  0
  4  3  1  0  0  0  0
  4  5  1  0  0  0  0
  5  6  1  0  0  0  0
M  END
>  <EGIN_R>
ES LYS A 135

>  <REMARK>
  4 active torsions:
  status: ('A' for Active; 'I' for Inactive)
    5  A    between atoms: CA   and  CB  
    6  A    between atoms: CB   and  CG  
    7  A    between atoms: CG   and  CD  
    8  A    between atoms: CD   and  CE  

$$$$
