ligand_43_pose_10_2HRL.pdbqt
 OpenBabel07062320523D

 49 49  0  0  1  0  0  0  0  0999 V2000
   23.8970   32.6600   15.3060 O   0  0  0  0  0  0  0  0  0  0  0  0
   25.0350   32.4040   16.0460 C   0  0  0  0  0  0  0  0  0  0  0  0
   26.2630   32.2390   15.3220 N   0  0  0  0  0  0  0  0  0  0  0  0
   26.2410   32.3180   14.2880 H   0  0  0  0  0  0  0  0  0  0  0  0
   25.0060   32.3180   17.3160 O   0  0  0  0  0  0  0  0  0  0  0  0
   27.4940   31.9720   15.9850 C   0  0  0  0  0  0  0  0  0  0  0  0
   28.0170   30.5510   15.7630 C   0  0  2  0  0  0  0  0  0  0  0  0
   27.8440   29.8400   17.0820 C   0  0  2  0  0  0  0  0  0  0  0  0
   26.7880   28.7830   17.0690 C   0  0  2  0  0  0  0  0  0  0  0  0
   24.4690   28.7970   17.1710 C   0  0  2  0  0  0  0  0  0  0  0  0
   24.6350   27.3250   17.4850 C   0  0  0  0  0  0  0  0  0  0  0  0
   25.6160   29.2890   16.5730 O   0  0  0  0  0  0  0  0  0  0  0  0
   25.6060   27.2160   18.6390 C   0  0  1  0  0  0  0  0  0  0  0  0
   26.6350   28.3160   18.5240 C   0  0  1  0  0  0  0  0  0  0  0  0
   24.1120   29.5160   18.3070 O   0  0  0  0  0  0  0  0  0  0  0  0
   24.2930   30.4730   18.1740 H   0  0  0  0  0  0  0  0  0  0  0  0
   23.3400   28.9070   16.2130 C   0  0  0  0  0  0  0  0  0  0  0  0
   22.4730   29.8150   16.2970 O   0  0  0  0  0  0  0  0  0  0  0  0
   23.1710   28.0020   15.1520 O   0  0  0  0  0  0  0  0  0  0  0  0
   23.8010   28.0880   14.3590 H   0  0  0  0  0  0  0  0  0  0  0  0
   24.9190   27.4060   19.8230 O   0  0  0  0  0  0  0  0  0  0  0  0
   25.0660   28.3280   20.1500 H   0  0  0  0  0  0  0  0  0  0  0  0
   27.9410   27.8810   18.9840 N   0  0  0  0  0  0  0  0  0  0  0  0
   28.3760   28.0120   20.3330 C   0  0  0  0  0  0  0  0  0  0  0  0
   28.6440   27.4380   18.3280 H   0  0  0  0  0  0  0  0  0  0  0  0
   29.7230   27.5610   20.7950 C   0  0  0  0  0  0  0  0  0  0  0  0
   27.5620   28.5380   21.1420 O   0  0  0  0  0  0  0  0  0  0  0  0
   27.5920   30.8430   18.0330 O   0  0  0  0  0  0  0  0  0  0  0  0
   27.3150   30.4610   18.9040 H   0  0  0  0  0  0  0  0  0  0  0  0
   29.3140   30.5530   15.2940 O   0  0  0  0  0  0  0  0  0  0  0  0
   29.5160   29.8900   14.6130 H   0  0  0  0  0  0  0  0  0  0  0  0
   23.9690   32.7790   13.9100 C   0  0  0  0  0  0  0  0  0  0  0  0
   23.6570   31.4240   13.3450 C   0  0  0  0  0  0  0  0  0  0  0  0
   22.3960   31.0370   12.9200 C   0  0  0  0  0  0  0  0  0  0  0  0
   24.4490   30.3720   13.1400 N   0  0  0  0  0  0  0  0  0  0  0  0
   22.4670   29.7760   12.4760 N   0  0  0  0  0  0  0  0  0  0  0  0
   23.7220   29.3980   12.6210 N   0  0  0  0  0  0  0  0  0  0  0  0
   21.4200   28.9260   11.9310 C   0  0  0  0  0  0  0  0  0  0  0  0
   20.0810   29.5980   12.0870 C   0  0  0  0  0  0  0  0  0  0  0  0
   19.1190   28.7370   12.8670 C   0  0  0  0  0  0  0  0  0  0  0  0
   19.7000   28.2690   14.1760 C   0  0  0  0  0  0  0  0  0  0  0  0
   19.5320   26.8040   14.3120 C   0  0  0  0  0  0  0  0  0  0  0  0
   20.2330   26.0810   15.1570 C   0  0  0  0  0  0  0  0  0  0  0  0
   29.8670   25.5550   16.9770 C   0  0  0  0  0  0  0  0  0  0  0  0
   28.3450   25.7220   17.0260 C   0  0  0  0  0  0  0  0  0  0  0  0
   27.5990   24.4300   16.7300 C   0  0  0  0  0  0  0  0  0  0  0  0
   26.8980   23.8900   17.9460 C   0  0  0  0  0  0  0  0  0  0  0  0
   25.4460   23.5790   17.6010 C   0  0  0  0  0  0  0  0  0  0  0  0
   24.6290   23.4780   18.8330 N   0  0  0  0  0  0  0  0  0  0  0  0
  1  2  1  0  0  0  0
  2  5  2  0  0  0  0
  3  6  1  0  0  0  0
  3  2  1  0  0  0  0
  4  3  1  0  0  0  0
  7  6  1  1  0  0  0
  7  8  1  0  0  0  0
  8 28  1  1  0  0  0
  9  8  1  1  0  0  0
  9 14  1  0  0  0  0
 10 17  1  6  0  0  0
 10 11  1  0  0  0  0
 10 15  1  0  0  0  0
 11 13  1  0  0  0  0
 12  9  1  0  0  0  0
 12 10  1  0  0  0  0
 13 21  1  1  0  0  0
 14 13  1  0  0  0  0
 14 23  1  6  0  0  0
 16 15  1  0  0  0  0
 17 18  2  0  0  0  0
 19 17  1  0  0  0  0
 20 19  1  0  0  0  0
 21 22  1  0  0  0  0
 23 24  1  0  0  0  0
 24 26  1  0  0  0  0
 24 27  2  0  0  0  0
 25 23  1  0  0  0  0
 28 29  1  0  0  0  0
 30  7  1  0  0  0  0
 31 30  1  0  0  0  0
 32  1  1  0  0  0  0
 33 32  1  0  0  0  0
 34 33  2  0  0  0  0
 35 33  1  0  0  0  0
 36 37  1  0  0  0  0
 36 34  1  0  0  0  0
 37 35  2  0  0  0  0
 38 39  1  0  0  0  0
 38 36  1  0  0  0  0
 39 40  1  0  0  0  0
 40 41  1  0  0  0  0
 41 42  1  0  0  0  0
 42 43  2  0  0  0  0
 44 45  1  0  0  0  0
 46 45  1  0  0  0  0
 46 47  1  0  0  0  0
 48 47  1  0  0  0  0
 48 49  1  0  0  0  0
M  END
>  <REMARK>
 VINA RESULT:    -4.871      5.750     10.711
 INTER + INTRA:         -14.355
 INTER:                  -7.705
 INTRA:                  -6.650
 UNBOUND:                -4.785
 SMILES C=CCCCCn1cc(COC(=O)NC[C@@H](O)C(O)[C@@H]2O[C@@](O)(C(=O)O)C[C@H](O)[C@H]2NC(C)=O)nn1
 SMILES IDX 11 1 12 2 14 3 13 5 15 6 16 7 18 8 20 9 22 10 27 11 21 12
 SMILES IDX 28 13 30 14 23 15 24 17 25 18 26 19 29 21 31 23 32 24 33 26
 SMILES IDX 34 27 19 28 17 30 10 32 9 33 8 34 35 35 7 36 36 37 6 38 5 39
 SMILES IDX 4 40 3 41 2 42 1 43
 H PARENT 14 4 23 16 26 20 29 22 31 25 19 29 17 31
 Flexibility Score: inf
  4 active torsions:
  status: ('A' for Active; 'I' for Inactive)
    1  A    between atoms: CA   and  CB  
    2  A    between atoms: CB   and  CG  
    3  A    between atoms: CG   and  CD  
    4  A    between atoms: CD   and  CE  

>  <TORSDO>
F 19

>  <BEGIN_>
RES LYS A 131

$$$$
ligand_43_pose_10_2HRL.pdbqt
 OpenBabel07062320523D

  6  5  0  0  0  0  0  0  0  0999 V2000
   33.1930   34.6630    9.2900 C   0  0  0  0  0  0  0  0  0  0  0  0
   32.0600   35.3600   10.0340 C   0  0  0  0  0  0  0  0  0  0  0  0
   30.7830   35.4490    9.2400 C   0  0  0  0  0  0  0  0  0  0  0  0
   29.6020   34.9620   10.0660 C   0  0  0  0  0  0  0  0  0  0  0  0
   28.7610   33.9840    9.2680 C   0  0  0  0  0  0  0  0  0  0  0  0
   27.4050   33.8320    9.8640 N   0  0  0  0  0  0  0  0  0  0  0  0
  1  2  1  0  0  0  0
  3  2  1  0  0  0  0
  3  4  1  0  0  0  0
  5  6  1  0  0  0  0
  5  4  1  0  0  0  0
M  END
>  <EGIN_R>
ES LYS A 135

>  <REMARK>
  4 active torsions:
  status: ('A' for Active; 'I' for Inactive)
    5  A    between atoms: CA   and  CB  
    6  A    between atoms: CB   and  CG  
    7  A    between atoms: CG   and  CD  
    8  A    between atoms: CD   and  CE  

$$$$
