ligand_69_pose_6_2HRL.pdbqt
 OpenBabel07062320523D

 54 51  0  0  1  0  0  0  0  0999 V2000
   25.1800   33.3310   14.7540 N   0  0  0  0  0  0  0  0  0  0  0  0
   24.5310   34.5370   14.3550 C   0  0  0  0  0  0  0  0  0  0  0  0
   23.6090   35.0700   15.0250 O   0  0  0  0  0  0  0  0  0  0  0  0
   25.9420   32.9110   14.1780 H   0  0  0  0  0  0  0  0  0  0  0  0
   24.7090   32.7330   16.0050 C   0  0  0  0  0  0  0  0  0  0  0  0
   24.3750   31.2870   15.6920 C   0  0  2  0  0  0  0  0  0  0  0  0
   25.0480   30.3170   16.6370 C   0  0  2  0  0  0  0  0  0  0  0  0
   26.4560   30.7130   16.9550 C   0  0  2  0  0  0  0  0  0  0  0  0
   28.5720   31.1150   16.2100 C   0  0  2  0  0  0  0  0  0  0  0  0
   28.7130   31.5530   17.6520 C   0  0  0  0  0  0  0  0  0  0  0  0
   27.2460   30.9050   15.8540 O   0  0  0  0  0  0  0  0  0  0  0  0
   28.1910   30.5030   18.6130 C   0  0  1  0  0  0  0  0  0  0  0  0
   27.1440   29.7240   17.8700 C   0  0  1  0  0  0  0  0  0  0  0  0
   29.3690   30.0090   15.9360 O   0  0  0  0  0  0  0  0  0  0  0  0
   30.2360   30.0470   16.4190 H   0  0  0  0  0  0  0  0  0  0  0  0
   29.0630   32.2390   15.3770 C   0  0  0  0  0  0  0  0  0  0  0  0
   30.2450   32.2960   14.9430 O   0  0  0  0  0  0  0  0  0  0  0  0
   28.2030   33.2670   15.0590 O   0  0  0  0  0  0  0  0  0  0  0  0
   27.8170   33.4290   14.1330 H   0  0  0  0  0  0  0  0  0  0  0  0
   29.2630   29.7470   19.0250 O   0  0  0  0  0  0  0  0  0  0  0  0
   29.9930   30.3860   19.2970 H   0  0  0  0  0  0  0  0  0  0  0  0
   26.2530   28.9780   18.6780 N   0  0  0  0  0  0  0  0  0  0  0  0
   26.5370   27.7250   19.2840 C   0  0  0  0  0  0  0  0  0  0  0  0
   25.3030   29.3690   18.8510 H   0  0  0  0  0  0  0  0  0  0  0  0
   25.5250   27.0140   20.1210 C   0  0  0  0  0  0  0  0  0  0  0  0
   27.6670   27.2350   19.0910 O   0  0  0  0  0  0  0  0  0  0  0  0
   24.8980   29.0150   16.2270 O   0  0  0  0  0  0  0  0  0  0  0  0
   25.5720   28.4630   16.6820 H   0  0  0  0  0  0  0  0  0  0  0  0
   24.8710   30.9650   14.4070 O   0  0  0  0  0  0  0  0  0  0  0  0
   24.1810   30.4800   13.8720 H   0  0  0  0  0  0  0  0  0  0  0  0
   24.9170   35.1590   13.1920 O   0  0  0  0  0  0  0  0  0  0  0  0
   25.6920   36.3430   13.1410 C   0  0  0  0  0  0  0  0  0  0  0  0
   27.1250   35.9670   13.1130 C   0  0  0  0  0  0  0  0  0  0  0  0
   28.2080   36.6140   13.6660 C   0  0  0  0  0  0  0  0  0  0  0  0
   27.6090   34.8660   12.5050 N   0  0  0  0  0  0  0  0  0  0  0  0
   29.3140   35.9010   13.3850 N   0  0  0  0  0  0  0  0  0  0  0  0
   28.9050   34.8450   12.6770 N   0  0  0  0  0  0  0  0  0  0  0  0
   30.6830   36.2320   13.7840 C   0  0  2  0  0  0  0  0  0  0  0  0
   31.5560   35.0860   13.4000 C   0  0  0  0  0  0  0  0  0  0  0  0
   33.0050   35.2810   13.6800 *   0  0  0  0  0  0  0  0  0  0  0  0
   33.8280   34.5340   12.8090 O   0  0  0  0  0  0  0  0  0  0  0  0
   33.5000   33.6100   12.7870 H   0  0  0  0  0  0  0  0  0  0  0  0
   30.6680   36.5370   15.2430 C   0  0  0  0  0  0  0  0  0  0  0  0
   31.0610   35.3880   16.1220 C   0  0  1  0  0  0  0  0  0  0  0  0
   32.5140   35.1130   16.1270 C   0  0  0  0  0  0  0  0  0  0  0  0
   33.3360   35.0670   15.1030 *   0  0  0  0  0  0  0  0  0  0  0  0
   30.5660   35.5140   17.4190 O   0  0  0  0  0  0  0  0  0  0  0  0
   29.6580   35.1290   17.5020 H   0  0  0  0  0  0  0  0  0  0  0  0
   29.8670   25.5550   16.9770 C   0  0  0  0  0  0  0  0  0  0  0  0
   28.3450   25.7220   17.0260 C   0  0  0  0  0  0  0  0  0  0  0  0
   27.6040   24.3940   16.9950 C   0  0  0  0  0  0  0  0  0  0  0  0
   26.1610   24.5420   17.3910 C   0  0  0  0  0  0  0  0  0  0  0  0
   25.7220   23.3150   18.1830 C   0  0  0  0  0  0  0  0  0  0  0  0
   24.9820   22.3720   17.3120 N   0  0  0  0  0  0  0  0  0  0  0  0
  1  5  1  0  0  0  0
  2  1  1  0  0  0  0
  2  3  2  0  0  0  0
  4  1  1  0  0  0  0
  6  5  1  1  0  0  0
  6  7  1  0  0  0  0
  7 27  1  6  0  0  0
  8  7  1  6  0  0  0
  8 13  1  0  0  0  0
  9 16  1  6  0  0  0
  9 10  1  0  0  0  0
 10 12  1  0  0  0  0
 11  9  1  0  0  0  0
 11  8  1  0  0  0  0
 12 20  1  6  0  0  0
 13 12  1  0  0  0  0
 13 22  1  1  0  0  0
 14  9  1  0  0  0  0
 14 15  1  0  0  0  0
 17 16  2  0  0  0  0
 18 16  1  0  0  0  0
 19 18  1  0  0  0  0
 20 21  1  0  0  0  0
 22 24  1  0  0  0  0
 22 23  1  0  0  0  0
 23 25  1  0  0  0  0
 26 23  2  0  0  0  0
 27 28  1  0  0  0  0
 29  6  1  0  0  0  0
 30 29  1  0  0  0  0
 31  2  1  0  0  0  0
 32 31  1  0  0  0  0
 33 32  1  0  0  0  0
 33 34  2  0  0  0  0
 35 37  2  0  0  0  0
 35 33  1  0  0  0  0
 36 34  1  0  0  0  0
 36 38  1  0  0  0  0
 37 36  1  0  0  0  0
 38 39  1  1  0  0  0
 38 43  1  0  0  0  0
 42 41  1  0  0  0  0
 43 44  1  0  0  0  0
 44 45  1  1  0  0  0
 44 47  1  0  0  0  0
 47 48  1  0  0  0  0
 49 50  1  0  0  0  0
 51 50  1  0  0  0  0
 51 52  1  0  0  0  0
 52 53  1  0  0  0  0
 54 53  1  0  0  0  0
M  END
>  <REMARK>
 VINA RESULT:    -7.805      2.820      6.904
 INTER + INTRA:         -13.215
 INTER:                  -7.735
 INTRA:                  -5.480
 UNBOUND:                 3.032
 SMILES CC(=O)N[C@@H]1[C@@H](O)C[C@](O)(C(=O)O)O[C@H]1C(O)[C@H](O)CNC(=O)OCc1cn(C2CC(O)C=C[C@@H](O)C2)nn1
 SMILES IDX 21 1 22 2 23 3 20 5 18 6 16 7 15 8 9 9 8 10 14 11 6 12 5 13
 SMILES IDX 10 14 11 16 12 17 13 18 7 20 4 22 2 23 1 25 3 26 17 27 19 29
 SMILES IDX 24 31 25 32 26 33 27 34 39 35 28 36 38 37 29 38 30 39 31 40
 SMILES IDX 32 42 37 44 35 45 34 46 33 47 36 49
 H PARENT 21 4 10 15 13 19 7 21 4 24 17 28 19 30 32 43 36 50
 Flexibility Score: 90.00
  4 active torsions:
  status: ('A' for Active; 'I' for Inactive)
    1  A    between atoms: CA   and  CB  
    2  A    between atoms: CB   and  CG  
    3  A    between atoms: CG   and  CD  
    4  A    between atoms: CD   and  CE  

>  <TORSDO>
F 17

>  <BEGIN_>
RES LYS A 131

$$$$
ligand_69_pose_6_2HRL.pdbqt
 OpenBabel07062320523D

  6  5  0  0  0  0  0  0  0  0999 V2000
   33.1930   34.6630    9.2900 C   0  0  0  0  0  0  0  0  0  0  0  0
   32.0600   35.3600   10.0340 C   0  0  0  0  0  0  0  0  0  0  0  0
   30.6920   34.8420    9.6700 C   0  0  0  0  0  0  0  0  0  0  0  0
   30.0070   35.7800    8.6880 C   0  0  0  0  0  0  0  0  0  0  0  0
   29.3590   34.9940    7.5650 C   0  0  0  0  0  0  0  0  0  0  0  0
   27.8940   35.2510    7.5060 N   0  0  0  0  0  0  0  0  0  0  0  0
  1  2  1  0  0  0  0
  3  2  1  0  0  0  0
  4  3  1  0  0  0  0
  5  4  1  0  0  0  0
  6  5  1  0  0  0  0
M  END
>  <EGIN_R>
ES LYS A 135

>  <REMARK>
  4 active torsions:
  status: ('A' for Active; 'I' for Inactive)
    5  A    between atoms: CA   and  CB  
    6  A    between atoms: CB   and  CG  
    7  A    between atoms: CG   and  CD  
    8  A    between atoms: CD   and  CE  

$$$$
