ligand_50_pose_3_2HRL.pdbqt
 OpenBabel07062320523D

 50 50  0  0  1  0  0  0  0  0999 V2000
   26.4570   37.4400   10.5720 N   0  0  0  0  0  0  0  0  0  0  0  0
   26.7570   38.7550   11.0070 C   0  0  0  0  0  0  0  0  0  0  0  0
   25.8560   39.5700   11.2710 O   0  0  0  0  0  0  0  0  0  0  0  0
   27.2980   36.8190   10.3690 H   0  0  0  0  0  0  0  0  0  0  0  0
   25.1160   36.9910   10.4170 C   0  0  0  0  0  0  0  0  0  0  0  0
   24.8400   36.3520    9.0740 C   0  0  2  0  0  0  0  0  0  0  0  0
   25.4580   37.2700    8.0260 C   0  0  1  0  0  0  0  0  0  0  0  0
   26.4090   36.4760    7.1240 C   0  0  2  0  0  0  0  0  0  0  0  0
   28.1530   35.4100    8.2280 C   0  0  2  0  0  0  0  0  0  0  0  0
   28.9770   35.3590    6.9560 C   0  0  0  0  0  0  0  0  0  0  0  0
   26.8340   35.3960    7.8450 O   0  0  0  0  0  0  0  0  0  0  0  0
   28.7530   36.6380    6.2270 C   0  0  1  0  0  0  0  0  0  0  0  0
   27.4910   37.3690    6.6060 C   0  0  1  0  0  0  0  0  0  0  0  0
   28.5280   36.5700    8.9020 O   0  0  0  0  0  0  0  0  0  0  0  0
   27.8150   36.9190    9.4840 H   0  0  0  0  0  0  0  0  0  0  0  0
   28.4110   34.2270    9.0880 C   0  0  0  0  0  0  0  0  0  0  0  0
   27.4520   33.7290    9.7300 O   0  0  0  0  0  0  0  0  0  0  0  0
   29.6780   33.6980    9.1690 O   0  0  0  0  0  0  0  0  0  0  0  0
   29.8360   32.7950    9.6050 H   0  0  0  0  0  0  0  0  0  0  0  0
   29.8270   37.4900    6.5160 O   0  0  0  0  0  0  0  0  0  0  0  0
   30.6280   37.1680    6.0650 H   0  0  0  0  0  0  0  0  0  0  0  0
   27.0500   38.0650    5.4160 N   0  0  0  0  0  0  0  0  0  0  0  0
   27.5060   39.3870    5.1760 C   0  0  0  0  0  0  0  0  0  0  0  0
   26.4020   37.6350    4.7170 H   0  0  0  0  0  0  0  0  0  0  0  0
   27.0790   40.1590    3.9570 C   0  0  0  0  0  0  0  0  0  0  0  0
   28.2850   39.9950    5.9530 O   0  0  0  0  0  0  0  0  0  0  0  0
   24.4590   37.8950    7.3210 O   0  0  0  0  0  0  0  0  0  0  0  0
   23.6090   37.9350    7.8440 H   0  0  0  0  0  0  0  0  0  0  0  0
   23.4670   36.2160    8.8700 O   0  0  0  0  0  0  0  0  0  0  0  0
   23.1590   35.4870    9.4420 H   0  0  0  0  0  0  0  0  0  0  0  0
   28.0870   39.1800   11.1570 O   0  0  0  0  0  0  0  0  0  0  0  0
   28.5330   40.2450   10.3670 C   0  0  0  0  0  0  0  0  0  0  0  0
   29.8280   39.9420    9.7060 C   0  0  0  0  0  0  0  0  0  0  0  0
   30.8210   40.8270    9.4030 C   0  0  0  0  0  0  0  0  0  0  0  0
   30.2440   38.7430    9.2900 N   0  0  0  0  0  0  0  0  0  0  0  0
   31.8140   40.1130    8.8070 N   0  0  0  0  0  0  0  0  0  0  0  0
   31.4460   38.8410    8.7450 N   0  0  0  0  0  0  0  0  0  0  0  0
   33.0710   40.6810    8.3230 C   0  0  0  0  0  0  0  0  0  0  0  0
   33.1600   40.3170    6.8540 C   0  0  1  0  0  0  0  0  0  0  0  0
   33.3880   38.9520    6.7310 O   0  0  0  0  0  0  0  0  0  0  0  0
   34.1280   38.7080    7.3500 H   0  0  0  0  0  0  0  0  0  0  0  0
   31.8560   40.6870    6.1400 C   0  0  0  0  0  0  0  0  0  0  0  0
   31.3060   39.5410    5.5620 O   0  0  0  0  0  0  0  0  0  0  0  0
   30.4100   39.3600    5.9760 H   0  0  0  0  0  0  0  0  0  0  0  0
   29.8670   25.5550   16.9770 C   0  0  0  0  0  0  0  0  0  0  0  0
   28.3450   25.7220   17.0260 C   0  0  0  0  0  0  0  0  0  0  0  0
   27.6000   24.4080   16.8460 C   0  0  0  0  0  0  0  0  0  0  0  0
   26.7330   24.0810   18.0300 C   0  0  0  0  0  0  0  0  0  0  0  0
   25.7720   25.2360   18.2910 C   0  0  0  0  0  0  0  0  0  0  0  0
   25.8610   25.6760   19.7030 N   0  0  0  0  0  0  0  0  0  0  0  0
  1  2  1  0  0  0  0
  2 31  1  0  0  0  0
  2  3  2  0  0  0  0
  4  1  1  0  0  0  0
  5  1  1  0  0  0  0
  6  5  1  1  0  0  0
  7 27  1  6  0  0  0
  7  6  1  0  0  0  0
  8 11  1  0  0  0  0
  8  7  1  1  0  0  0
  9 14  1  1  0  0  0
  9 16  1  0  0  0  0
 10  9  1  0  0  0  0
 11  9  1  0  0  0  0
 12 20  1  1  0  0  0
 12 13  1  0  0  0  0
 12 10  1  0  0  0  0
 13 22  1  6  0  0  0
 13  8  1  0  0  0  0
 14 15  1  0  0  0  0
 16 18  1  0  0  0  0
 16 17  2  0  0  0  0
 18 19  1  0  0  0  0
 21 20  1  0  0  0  0
 23 22  1  0  0  0  0
 23 26  2  0  0  0  0
 24 22  1  0  0  0  0
 25 23  1  0  0  0  0
 27 28  1  0  0  0  0
 29  6  1  0  0  0  0
 29 30  1  0  0  0  0
 32 31  1  0  0  0  0
 33 32  1  0  0  0  0
 34 33  2  0  0  0  0
 35 33  1  0  0  0  0
 36 34  1  0  0  0  0
 37 36  1  0  0  0  0
 37 35  2  0  0  0  0
 38 36  1  0  0  0  0
 39 42  1  6  0  0  0
 39 38  1  0  0  0  0
 40 39  1  0  0  0  0
 40 41  1  0  0  0  0
 43 44  1  0  0  0  0
 43 42  1  0  0  0  0
 45 46  1  0  0  0  0
 47 46  1  0  0  0  0
 47 48  1  0  0  0  0
 48 49  1  0  0  0  0
 49 50  1  0  0  0  0
M  END
>  <REMARK>
 VINA RESULT:    -4.754      7.575     13.214
 INTER + INTRA:         -14.539
 INTER:                  -8.943
 INTRA:                  -5.596
 UNBOUND:                -5.477
 SMILES CC(=O)N[C@@H]1[C@@H](O)C[C@](O)(C(=O)O)O[C@H]1C(O)[C@H](O)CNC(=O)OCc1cn(CC(O)CO)nn1
 SMILES IDX 21 1 22 2 23 3 20 5 18 6 16 7 15 8 9 9 8 10 14 11 6 12 5 13
 SMILES IDX 10 14 11 16 12 17 13 18 7 20 4 22 2 23 1 25 3 26 17 27 19 29
 SMILES IDX 24 31 25 32 26 33 27 34 35 35 28 36 34 37 29 38 30 39 31 40
 SMILES IDX 32 42 33 43
 H PARENT 21 4 10 15 13 19 7 21 4 24 17 28 19 30 31 41 33 44
 Flexibility Score: inf
  4 active torsions:
  status: ('A' for Active; 'I' for Inactive)
    1  A    between atoms: CA   and  CB  
    2  A    between atoms: CB   and  CG  
    3  A    between atoms: CG   and  CD  
    4  A    between atoms: CD   and  CE  

>  <TORSDO>
F 19

>  <BEGIN_>
RES LYS A 131

$$$$
ligand_50_pose_3_2HRL.pdbqt
 OpenBabel07062320523D

  6  5  0  0  0  0  0  0  0  0999 V2000
   33.1930   34.6630    9.2900 C   0  0  0  0  0  0  0  0  0  0  0  0
   32.0600   35.3600   10.0340 C   0  0  0  0  0  0  0  0  0  0  0  0
   32.5250   36.1720   11.2150 C   0  0  0  0  0  0  0  0  0  0  0  0
   31.9330   35.6290   12.5060 C   0  0  0  0  0  0  0  0  0  0  0  0
   30.5920   34.9700   12.2420 C   0  0  0  0  0  0  0  0  0  0  0  0
   29.4820   35.9580   12.3340 N   0  0  0  0  0  0  0  0  0  0  0  0
  1  2  1  0  0  0  0
  2  3  1  0  0  0  0
  3  4  1  0  0  0  0
  5  6  1  0  0  0  0
  5  4  1  0  0  0  0
M  END
>  <EGIN_R>
ES LYS A 135

>  <REMARK>
  4 active torsions:
  status: ('A' for Active; 'I' for Inactive)
    5  A    between atoms: CA   and  CB  
    6  A    between atoms: CB   and  CG  
    7  A    between atoms: CG   and  CD  
    8  A    between atoms: CD   and  CE  

$$$$
