ligand_78_pose_6_2HRL.pdbqt
 OpenBabel07062320523D

 53 54  0  0  1  0  0  0  0  0999 V2000
   31.1150   35.3310   15.1410 N   0  0  0  0  0  0  0  0  0  0  0  0
   30.2900   35.2600   13.9610 C   0  0  0  0  0  0  0  0  0  0  0  0
   30.3830   34.2680   13.2250 O   0  0  0  0  0  0  0  0  0  0  0  0
   30.9740   36.1890   15.7070 H   0  0  0  0  0  0  0  0  0  0  0  0
   32.0400   34.2570   15.4580 C   0  0  0  0  0  0  0  0  0  0  0  0
   31.5680   33.4070   16.5890 C   0  0  2  0  0  0  0  0  0  0  0  0
   30.4810   32.4510   16.2320 C   0  0  2  0  0  0  0  0  0  0  0  0
   30.3760   31.2120   17.0460 C   0  0  2  0  0  0  0  0  0  0  0  0
   28.1130   30.8540   16.5790 C   0  0  2  0  0  0  0  0  0  0  0  0
   27.7580   31.7190   17.7440 C   0  0  0  0  0  0  0  0  0  0  0  0
   29.3940   30.3680   16.5340 O   0  0  0  0  0  0  0  0  0  0  0  0
   28.7470   31.8070   18.8400 C   0  0  1  0  0  0  0  0  0  0  0  0
   30.1230   31.3090   18.4980 C   0  0  1  0  0  0  0  0  0  0  0  0
   27.8890   31.5130   15.3700 O   0  0  0  0  0  0  0  0  0  0  0  0
   27.0950   32.0700   15.3600 H   0  0  0  0  0  0  0  0  0  0  0  0
   27.2220   29.6640   16.5840 C   0  0  0  0  0  0  0  0  0  0  0  0
   25.9850   29.8260   16.5350 O   0  0  0  0  0  0  0  0  0  0  0  0
   27.6990   28.3600   16.6410 O   0  0  0  0  0  0  0  0  0  0  0  0
   28.4440   28.0420   16.0050 H   0  0  0  0  0  0  0  0  0  0  0  0
   28.7910   33.1160   19.3150 O   0  0  0  0  0  0  0  0  0  0  0  0
   28.5330   33.7740   18.6450 H   0  0  0  0  0  0  0  0  0  0  0  0
   30.3770   29.9930   19.0930 N   0  0  0  0  0  0  0  0  0  0  0  0
   31.1530   29.8410   20.2630 C   0  0  0  0  0  0  0  0  0  0  0  0
   29.9820   29.1410   18.6520 H   0  0  0  0  0  0  0  0  0  0  0  0
   31.4210   28.5080   20.8830 C   0  0  0  0  0  0  0  0  0  0  0  0
   31.6220   30.8840   20.7810 O   0  0  0  0  0  0  0  0  0  0  0  0
   30.9440   31.9260   14.9470 O   0  0  0  0  0  0  0  0  0  0  0  0
   31.4740   32.6390   14.5500 H   0  0  0  0  0  0  0  0  0  0  0  0
   31.3530   34.0610   17.7860 O   0  0  0  0  0  0  0  0  0  0  0  0
   31.6250   35.0100   17.7530 H   0  0  0  0  0  0  0  0  0  0  0  0
   29.4050   36.2720   13.6440 O   0  0  0  0  0  0  0  0  0  0  0  0
   28.4190   36.7380   14.5470 C   0  0  0  0  0  0  0  0  0  0  0  0
   27.3370   35.7600   14.7260 C   0  0  0  0  0  0  0  0  0  0  0  0
   26.0400   35.7820   14.2990 C   0  0  0  0  0  0  0  0  0  0  0  0
   27.4730   34.5960   15.3970 N   0  0  0  0  0  0  0  0  0  0  0  0
   25.4320   34.6440   14.7180 N   0  0  0  0  0  0  0  0  0  0  0  0
   26.3320   33.9410   15.3860 N   0  0  0  0  0  0  0  0  0  0  0  0
   24.0570   34.3060   14.4600 C   0  0  0  0  0  0  0  0  0  0  0  0
   23.8710   33.6870   12.7930 S   0  0  0  0  0  0  0  0  0  0  0  0
   25.2090   33.8010   12.1070 O   0  0  0  0  0  0  0  0  0  0  0  0
   22.8730   34.5400   12.1040 O   0  0  0  0  0  0  0  0  0  0  0  0
   23.3560   32.0120   12.8730 C   0  0  0  0  0  0  0  0  0  0  0  0
   24.3130   31.0510   13.1790 C   0  0  0  0  0  0  0  0  0  0  0  0
   22.0440   31.6770   12.6380 C   0  0  0  0  0  0  0  0  0  0  0  0
   23.9080   29.7390   13.2420 C   0  0  0  0  0  0  0  0  0  0  0  0
   21.6900   30.3480   12.7130 C   0  0  0  0  0  0  0  0  0  0  0  0
   22.5900   29.3540   13.0110 C   0  0  0  0  0  0  0  0  0  0  0  0
   29.8670   25.5550   16.9770 C   0  0  0  0  0  0  0  0  0  0  0  0
   28.3450   25.7220   17.0260 C   0  0  0  0  0  0  0  0  0  0  0  0
   27.6010   24.4010   16.9000 C   0  0  0  0  0  0  0  0  0  0  0  0
   26.1540   24.5270   17.2880 C   0  0  0  0  0  0  0  0  0  0  0  0
   25.9560   23.9890   18.7010 C   0  0  0  0  0  0  0  0  0  0  0  0
   25.5140   25.0710   19.6120 N   0  0  0  0  0  0  0  0  0  0  0  0
  1  5  1  0  0  0  0
  1  4  1  0  0  0  0
  2  1  1  0  0  0  0
  3  2  2  0  0  0  0
  6  5  1  6  0  0  0
  6 29  1  0  0  0  0
  7 27  1  6  0  0  0
  7  6  1  0  0  0  0
  8  7  1  6  0  0  0
  8 13  1  0  0  0  0
  9 14  1  6  0  0  0
  9 16  1  0  0  0  0
  9 10  1  0  0  0  0
 10 12  1  0  0  0  0
 11  9  1  0  0  0  0
 11  8  1  0  0  0  0
 12 20  1  6  0  0  0
 13 12  1  0  0  0  0
 13 22  1  1  0  0  0
 15 14  1  0  0  0  0
 16 18  1  0  0  0  0
 17 16  2  0  0  0  0
 19 18  1  0  0  0  0
 21 20  1  0  0  0  0
 22 23  1  0  0  0  0
 23 26  2  0  0  0  0
 23 25  1  0  0  0  0
 24 22  1  0  0  0  0
 28 27  1  0  0  0  0
 30 29  1  0  0  0  0
 31  2  1  0  0  0  0
 31 32  1  0  0  0  0
 32 33  1  0  0  0  0
 33 35  1  0  0  0  0
 34 36  1  0  0  0  0
 34 33  2  0  0  0  0
 36 37  1  0  0  0  0
 37 35  2  0  0  0  0
 38 36  1  0  0  0  0
 39 42  1  0  0  0  0
 39 38  1  0  0  0  0
 40 39  2  0  0  0  0
 41 39  2  0  0  0  0
 42 43  2  0  0  0  0
 43 45  1  0  0  0  0
 44 46  2  0  0  0  0
 44 42  1  0  0  0  0
 46 47  1  0  0  0  0
 47 45  2  0  0  0  0
 48 49  1  0  0  0  0
 50 49  1  0  0  0  0
 50 51  1  0  0  0  0
 51 52  1  0  0  0  0
 52 53  1  0  0  0  0
M  END
>  <REMARK>
 VINA RESULT:    -5.554      3.672      7.018
 INTER + INTRA:         -15.273
 INTER:                  -9.281
 INTRA:                  -5.992
 UNBOUND:                -5.011
 SMILES CC(=O)N[C@@H]1[C@@H](O)C[C@](O)(C(=O)O)O[C@H]1C(O)[C@H](O)CNC(=O)OCc1cn(CS(=O)(=O)c2ccccc2)nn1
 SMILES IDX 21 1 22 2 23 3 20 5 18 6 16 7 15 8 9 9 8 10 14 11 6 12 5 13
 SMILES IDX 10 14 11 16 12 17 13 18 7 20 4 22 2 23 1 25 3 26 17 27 19 29
 SMILES IDX 24 31 25 32 26 33 27 34 40 35 28 36 39 37 29 38 30 39 31 40
 SMILES IDX 32 41 33 42 34 43 38 44 35 45 37 46 36 47
 H PARENT 21 4 10 15 13 19 7 21 4 24 17 28 19 30
 Flexibility Score: inf
  4 active torsions:
  status: ('A' for Active; 'I' for Inactive)
    1  A    between atoms: CA   and  CB  
    2  A    between atoms: CB   and  CG  
    3  A    between atoms: CG   and  CD  
    4  A    between atoms: CD   and  CE  

>  <TORSDO>
F 17

>  <BEGIN_>
RES LYS A 131

$$$$
ligand_78_pose_6_2HRL.pdbqt
 OpenBabel07062320523D

  6  5  0  0  0  0  0  0  0  0999 V2000
   33.1930   34.6630    9.2900 C   0  0  0  0  0  0  0  0  0  0  0  0
   32.0600   35.3600   10.0340 C   0  0  0  0  0  0  0  0  0  0  0  0
   30.7010   34.7750    9.7470 C   0  0  0  0  0  0  0  0  0  0  0  0
   30.5450   34.4820    8.2630 C   0  0  0  0  0  0  0  0  0  0  0  0
   29.2660   35.0980    7.7300 C   0  0  0  0  0  0  0  0  0  0  0  0
   28.0710   34.5270    8.4110 N   0  0  0  0  0  0  0  0  0  0  0  0
  1  2  1  0  0  0  0
  3  2  1  0  0  0  0
  4  3  1  0  0  0  0
  5  4  1  0  0  0  0
  5  6  1  0  0  0  0
M  END
>  <EGIN_R>
ES LYS A 135

>  <REMARK>
  4 active torsions:
  status: ('A' for Active; 'I' for Inactive)
    5  A    between atoms: CA   and  CB  
    6  A    between atoms: CB   and  CG  
    7  A    between atoms: CG   and  CD  
    8  A    between atoms: CD   and  CE  

$$$$
