ligand_4_pose_18_2HRL.pdbqt
 OpenBabel07062320523D

 52 53  0  0  1  0  0  0  0  0999 V2000
   25.6060   37.2980   13.2640 N   0  0  0  0  0  0  0  0  0  0  0  0
   24.6080   36.3100   13.1550 C   0  0  0  0  0  0  0  0  0  0  0  0
   24.1320   35.9910   12.0460 O   0  0  0  0  0  0  0  0  0  0  0  0
   25.9800   37.5180   14.2270 H   0  0  0  0  0  0  0  0  0  0  0  0
   26.1180   37.9940   12.1350 C   0  0  0  0  0  0  0  0  0  0  0  0
   27.2660   37.2830   11.4210 C   0  0  2  0  0  0  0  0  0  0  0  0
   27.1120   37.7440    9.9690 C   0  0  2  0  0  0  0  0  0  0  0  0
   27.3350   36.6460    8.9800 C   0  0  2  0  0  0  0  0  0  0  0  0
   29.3110   35.9020    8.0200 C   0  0  2  0  0  0  0  0  0  0  0  0
   28.6220   35.5720    6.7430 C   0  0  0  0  0  0  0  0  0  0  0  0
   28.5540   36.0780    9.1390 O   0  0  0  0  0  0  0  0  0  0  0  0
   27.2870   36.2510    6.5260 C   0  0  1  0  0  0  0  0  0  0  0  0
   27.1540   37.2800    7.6090 C   0  0  1  0  0  0  0  0  0  0  0  0
   30.1960   36.9910    7.8140 O   0  0  0  0  0  0  0  0  0  0  0  0
   29.7410   37.8300    7.6220 H   0  0  0  0  0  0  0  0  0  0  0  0
   30.2050   34.7260    8.3300 C   0  0  0  0  0  0  0  0  0  0  0  0
   29.7600   33.8260    9.0730 O   0  0  0  0  0  0  0  0  0  0  0  0
   31.4900   34.5990    7.8200 O   0  0  0  0  0  0  0  0  0  0  0  0
   32.0850   35.3820    7.5590 H   0  0  0  0  0  0  0  0  0  0  0  0
   27.3340   36.9140    5.2610 O   0  0  0  0  0  0  0  0  0  0  0  0
   26.4550   36.8790    4.8140 H   0  0  0  0  0  0  0  0  0  0  0  0
   26.0330   38.1360    7.5980 N   0  0  0  0  0  0  0  0  0  0  0  0
   25.9740   39.3980    6.9570 C   0  0  0  0  0  0  0  0  0  0  0  0
   25.1380   37.8300    8.1120 H   0  0  0  0  0  0  0  0  0  0  0  0
   24.7960   40.2730    6.9580 C   0  0  0  0  0  0  0  0  0  0  0  0
   27.0670   39.7620    6.3450 O   0  0  0  0  0  0  0  0  0  0  0  0
   28.0140   38.8030    9.8330 O   0  0  0  0  0  0  0  0  0  0  0  0
   27.7590   39.4910   10.5030 H   0  0  0  0  0  0  0  0  0  0  0  0
   27.2130   35.9300   11.4880 O   0  0  0  0  0  0  0  0  0  0  0  0
   26.3280   35.5730   11.5220 H   0  0  0  0  0  0  0  0  0  0  0  0
   24.1220   35.6570   14.2880 O   0  0  0  0  0  0  0  0  0  0  0  0
   24.4440   34.2830   14.4430 C   0  0  0  0  0  0  0  0  0  0  0  0
   25.7410   34.2580   15.1660 C   0  0  0  0  0  0  0  0  0  0  0  0
   26.9150   33.7050   14.6380 C   0  0  0  0  0  0  0  0  0  0  0  0
   26.0660   34.8220   16.3390 N   0  0  0  0  0  0  0  0  0  0  0  0
   27.8770   33.9850   15.5370 N   0  0  0  0  0  0  0  0  0  0  0  0
   27.3480   34.6290   16.4970 N   0  0  0  0  0  0  0  0  0  0  0  0
   29.2500   33.7170   15.3260 C   0  0  0  0  0  0  0  0  0  0  0  0
   29.8790   32.7740   16.0450 C   0  0  0  0  0  0  0  0  0  0  0  0
   29.9790   34.5660   14.4810 C   0  0  0  0  0  0  0  0  0  0  0  0
   31.2640   32.6520   15.9400 C   0  0  0  0  0  0  0  0  0  0  0  0
   31.3160   34.4620   14.3670 C   0  0  0  0  0  0  0  0  0  0  0  0
   31.9970   33.4980   15.0970 C   0  0  0  0  0  0  0  0  0  0  0  0
   29.1390   31.7970   16.8190 C   0  0  0  0  0  0  0  0  0  0  0  0
   29.9640   31.1950   17.9460 C   0  0  0  0  0  0  0  0  0  0  0  0
   29.0300   30.5210   15.8710 C   0  0  0  0  0  0  0  0  0  0  0  0
   29.8670   25.5550   16.9770 C   0  0  0  0  0  0  0  0  0  0  0  0
   28.3450   25.7220   17.0260 C   0  0  0  0  0  0  0  0  0  0  0  0
   27.6010   24.4010   16.9040 C   0  0  0  0  0  0  0  0  0  0  0  0
   26.3790   24.3560   17.7780 C   0  0  0  0  0  0  0  0  0  0  0  0
   26.0790   25.7550   18.3060 C   0  0  0  0  0  0  0  0  0  0  0  0
   25.8480   25.7190   19.7690 N   0  0  0  0  0  0  0  0  0  0  0  0
  1  4  1  0  0  0  0
  2  1  1  0  0  0  0
  2 31  1  0  0  0  0
  3  2  2  0  0  0  0
  5  1  1  0  0  0  0
  6 29  1  0  0  0  0
  6  5  1  1  0  0  0
  7 27  1  6  0  0  0
  7  6  1  0  0  0  0
  8 11  1  0  0  0  0
  8  7  1  1  0  0  0
  9 14  1  6  0  0  0
  9 16  1  0  0  0  0
  9 11  1  0  0  0  0
 10  9  1  0  0  0  0
 12 20  1  6  0  0  0
 12 10  1  0  0  0  0
 12 13  1  0  0  0  0
 13 22  1  1  0  0  0
 13  8  1  0  0  0  0
 15 14  1  0  0  0  0
 16 17  2  0  0  0  0
 18 16  1  0  0  0  0
 19 18  1  0  0  0  0
 21 20  1  0  0  0  0
 22 24  1  0  0  0  0
 23 25  1  0  0  0  0
 23 22  1  0  0  0  0
 26 23  2  0  0  0  0
 27 28  1  0  0  0  0
 29 30  1  0  0  0  0
 31 32  1  0  0  0  0
 32 33  1  0  0  0  0
 33 35  1  0  0  0  0
 34 33  2  0  0  0  0
 34 36  1  0  0  0  0
 35 37  2  0  0  0  0
 36 37  1  0  0  0  0
 38 36  1  0  0  0  0
 38 39  2  0  0  0  0
 39 44  1  0  0  0  0
 40 38  1  0  0  0  0
 41 39  1  0  0  0  0
 42 40  2  0  0  0  0
 42 43  1  0  0  0  0
 43 41  2  0  0  0  0
 44 45  1  0  0  0  0
 46 44  1  0  0  0  0
 47 48  1  0  0  0  0
 49 48  1  0  0  0  0
 49 50  1  0  0  0  0
 50 51  1  0  0  0  0
 51 52  1  0  0  0  0
M  END
>  <REMARK>
 VINA RESULT:    -3.978      2.771      4.711
 INTER + INTRA:         -14.355
 INTER:                 -10.447
 INTRA:                  -3.908
 UNBOUND:                -7.237
 SMILES CC(=O)N[C@@H]1[C@@H](O)C[C@](O)(C(=O)O)O[C@H]1C(O)[C@H](O)CNC(=O)OCc1cn(-c2ccccc2C(C)C)nn1
 SMILES IDX 21 1 22 2 23 3 20 5 18 6 16 7 15 8 9 9 8 10 14 11 6 12 5 13
 SMILES IDX 10 14 11 16 12 17 13 18 7 20 4 22 2 23 1 25 3 26 17 27 19 29
 SMILES IDX 24 31 25 32 26 33 27 34 39 35 28 36 38 37 29 38 34 39 30 40
 SMILES IDX 33 41 31 42 32 43 35 44 36 45 37 46
 H PARENT 21 4 10 15 13 19 7 21 4 24 17 28 19 30
 Flexibility Score: inf
  4 active torsions:
  status: ('A' for Active; 'I' for Inactive)
    1  A    between atoms: CA   and  CB  
    2  A    between atoms: CB   and  CG  
    3  A    between atoms: CG   and  CD  
    4  A    between atoms: CD   and  CE  

>  <TORSDO>
F 16

>  <BEGIN_>
RES LYS A 131

$$$$
ligand_4_pose_18_2HRL.pdbqt
 OpenBabel07062320523D

  6  5  0  0  0  0  0  0  0  0999 V2000
   33.1930   34.6630    9.2900 C   0  0  0  0  0  0  0  0  0  0  0  0
   32.0600   35.3600   10.0340 C   0  0  0  0  0  0  0  0  0  0  0  0
   32.5090   36.0730   11.2830 C   0  0  0  0  0  0  0  0  0  0  0  0
   32.0000   37.5070   11.2950 C   0  0  0  0  0  0  0  0  0  0  0  0
   30.8910   37.6700   12.3160 C   0  0  0  0  0  0  0  0  0  0  0  0
   30.4290   39.0840   12.3860 N   0  0  0  0  0  0  0  0  0  0  0  0
  1  2  1  0  0  0  0
  2  3  1  0  0  0  0
  3  4  1  0  0  0  0
  4  5  1  0  0  0  0
  5  6  1  0  0  0  0
M  END
>  <EGIN_R>
ES LYS A 135

>  <REMARK>
  4 active torsions:
  status: ('A' for Active; 'I' for Inactive)
    5  A    between atoms: CA   and  CB  
    6  A    between atoms: CB   and  CG  
    7  A    between atoms: CG   and  CD  
    8  A    between atoms: CD   and  CE  

$$$$
