ligand_18_pose_8_2HRL.pdbqt
 OpenBabel07062320523D

 54 55  0  0  1  0  0  0  0  0999 V2000
   31.1540   32.2610   15.7510 N   0  0  0  0  0  0  0  0  0  0  0  0
   31.5150   33.5030   16.3140 C   0  0  0  0  0  0  0  0  0  0  0  0
   31.1240   33.7680   17.4770 O   0  0  0  0  0  0  0  0  0  0  0  0
   31.4890   32.0620   14.7820 H   0  0  0  0  0  0  0  0  0  0  0  0
   30.3580   31.2470   16.4120 C   0  0  0  0  0  0  0  0  0  0  0  0
   29.1250   30.9260   15.6150 C   0  0  2  0  0  0  0  0  0  0  0  0
   27.9110   31.7010   16.0040 C   0  0  1  0  0  0  0  0  0  0  0  0
   26.6230   31.3480   15.3630 C   0  0  2  0  0  0  0  0  0  0  0  0
   24.7220   32.4780   14.5980 C   0  0  2  0  0  0  0  0  0  0  0  0
   24.4650   31.1090   13.9940 C   0  0  0  0  0  0  0  0  0  0  0  0
   25.9380   32.5980   15.2020 O   0  0  0  0  0  0  0  0  0  0  0  0
   24.5640   30.1000   15.0850 C   0  0  1  0  0  0  0  0  0  0  0  0
   25.6690   30.4870   16.0880 C   0  0  1  0  0  0  0  0  0  0  0  0
   23.6540   32.6960   15.4890 O   0  0  0  0  0  0  0  0  0  0  0  0
   22.8180   32.3510   15.0680 H   0  0  0  0  0  0  0  0  0  0  0  0
   24.6410   33.5280   13.5500 C   0  0  0  0  0  0  0  0  0  0  0  0
   25.4780   33.5250   12.6240 O   0  0  0  0  0  0  0  0  0  0  0  0
   23.6600   34.5160   13.5690 O   0  0  0  0  0  0  0  0  0  0  0  0
   23.9100   35.3860   14.0420 H   0  0  0  0  0  0  0  0  0  0  0  0
   23.3740   29.8590   15.7360 O   0  0  0  0  0  0  0  0  0  0  0  0
   23.4680   29.1320   16.4010 H   0  0  0  0  0  0  0  0  0  0  0  0
   26.1240   29.2650   16.6380 N   0  0  0  0  0  0  0  0  0  0  0  0
   26.3400   29.1480   18.0270 C   0  0  0  0  0  0  0  0  0  0  0  0
   26.3080   28.4400   16.0520 H   0  0  0  0  0  0  0  0  0  0  0  0
   26.8220   27.8790   18.6560 C   0  0  0  0  0  0  0  0  0  0  0  0
   26.1400   30.1160   18.8350 O   0  0  0  0  0  0  0  0  0  0  0  0
   27.8510   32.0790   17.3370 O   0  0  0  0  0  0  0  0  0  0  0  0
   27.8300   31.3450   17.9640 H   0  0  0  0  0  0  0  0  0  0  0  0
   28.8840   29.5680   15.4560 O   0  0  0  0  0  0  0  0  0  0  0  0
   27.9260   29.3440   15.4270 H   0  0  0  0  0  0  0  0  0  0  0  0
   32.2920   34.4450   15.6250 O   0  0  0  0  0  0  0  0  0  0  0  0
   32.0400   34.7270   14.2610 C   0  0  0  0  0  0  0  0  0  0  0  0
   30.5960   35.0620   14.1180 C   0  0  0  0  0  0  0  0  0  0  0  0
   29.9620   36.2500   14.4180 C   0  0  0  0  0  0  0  0  0  0  0  0
   29.6180   34.2620   13.6640 N   0  0  0  0  0  0  0  0  0  0  0  0
   28.6550   36.1320   14.1430 N   0  0  0  0  0  0  0  0  0  0  0  0
   28.4720   34.9120   13.6860 N   0  0  0  0  0  0  0  0  0  0  0  0
   27.6600   37.2000   14.3310 C   0  0  0  0  0  0  0  0  0  0  0  0
   26.6030   36.9780   13.3170 C   0  0  0  0  0  0  0  0  0  0  0  0
   25.3930   36.8960   13.7110 O   0  0  0  0  0  0  0  0  0  0  0  0
   26.8240   36.8450   11.9260 N   0  0  0  0  0  0  0  0  0  0  0  0
   27.8070   36.9100   11.6070 H   0  0  0  0  0  0  0  0  0  0  0  0
   25.7610   36.6300   10.9710 C   0  0  0  0  0  0  0  0  0  0  0  0
   26.3680   36.8460    9.5980 C   0  0  0  0  0  0  0  0  0  0  0  0
   26.0380   36.3060    8.4300 C   0  0  0  0  0  0  0  0  0  0  0  0
   27.6960   37.8960    9.2270 S   0  0  0  0  0  0  0  0  0  0  0  0
   26.7110   36.6320    7.3070 C   0  0  0  0  0  0  0  0  0  0  0  0
   27.7530   37.5570    7.4690 C   0  0  0  0  0  0  0  0  0  0  0  0
   29.8670   25.5550   16.9770 C   0  0  0  0  0  0  0  0  0  0  0  0
   28.3450   25.7220   17.0260 C   0  0  0  0  0  0  0  0  0  0  0  0
   27.6010   24.4030   16.8870 C   0  0  0  0  0  0  0  0  0  0  0  0
   26.6490   24.1670   18.0270 C   0  0  0  0  0  0  0  0  0  0  0  0
   25.5500   23.2070   17.5820 C   0  0  0  0  0  0  0  0  0  0  0  0
   24.4680   23.9440   16.8880 N   0  0  0  0  0  0  0  0  0  0  0  0
  1  2  1  0  0  0  0
  1  5  1  0  0  0  0
  2  3  2  0  0  0  0
  4  1  1  0  0  0  0
  6  7  1  0  0  0  0
  6  5  1  1  0  0  0
  7 27  1  1  0  0  0
  8  7  1  1  0  0  0
  8 13  1  0  0  0  0
  9 16  1  6  0  0  0
  9 11  1  0  0  0  0
  9 14  1  0  0  0  0
 10  9  1  0  0  0  0
 10 12  1  0  0  0  0
 11  8  1  0  0  0  0
 12 20  1  1  0  0  0
 12 13  1  0  0  0  0
 13 22  1  6  0  0  0
 15 14  1  0  0  0  0
 16 18  1  0  0  0  0
 17 16  2  0  0  0  0
 18 19  1  0  0  0  0
 20 21  1  0  0  0  0
 22 23  1  0  0  0  0
 23 25  1  0  0  0  0
 23 26  2  0  0  0  0
 24 22  1  0  0  0  0
 27 28  1  0  0  0  0
 29  6  1  0  0  0  0
 30 29  1  0  0  0  0
 31  2  1  0  0  0  0
 32 31  1  0  0  0  0
 33 32  1  0  0  0  0
 33 34  2  0  0  0  0
 35 37  2  0  0  0  0
 35 33  1  0  0  0  0
 36 38  1  0  0  0  0
 36 34  1  0  0  0  0
 37 36  1  0  0  0  0
 39 40  2  0  0  0  0
 39 38  1  0  0  0  0
 41 39  1  0  0  0  0
 42 41  1  0  0  0  0
 43 41  1  0  0  0  0
 44 43  1  0  0  0  0
 45 44  2  0  0  0  0
 46 44  1  0  0  0  0
 47 48  2  0  0  0  0
 47 45  1  0  0  0  0
 48 46  1  0  0  0  0
 49 50  1  0  0  0  0
 51 50  1  0  0  0  0
 51 52  1  0  0  0  0
 53 52  1  0  0  0  0
 54 53  1  0  0  0  0
M  END
>  <REMARK>
 VINA RESULT:    -4.287      3.536      8.841
 INTER + INTRA:         -14.960
 INTER:                  -8.533
 INTRA:                  -6.427
 UNBOUND:                -6.788
 SMILES CC(=O)N[C@@H]1[C@@H](O)C[C@](O)(C(=O)O)O[C@H]1C(O)[C@H](O)CNC(=O)OCc1cn(CC(=O)NCc2cccs2)nn1
 SMILES IDX 21 1 22 2 23 3 20 5 18 6 16 7 15 8 9 9 8 10 14 11 6 12 5 13
 SMILES IDX 10 14 11 16 12 17 13 18 7 20 4 22 2 23 1 25 3 26 17 27 19 29
 SMILES IDX 24 31 25 32 26 33 27 34 40 35 28 36 39 37 29 38 30 39 31 40
 SMILES IDX 32 41 33 43 34 44 35 45 38 46 36 47 37 48
 H PARENT 21 4 10 15 13 19 7 21 4 24 17 28 19 30 32 42
 Flexibility Score: inf
  4 active torsions:
  status: ('A' for Active; 'I' for Inactive)
    1  A    between atoms: CA   and  CB  
    2  A    between atoms: CB   and  CG  
    3  A    between atoms: CG   and  CD  
    4  A    between atoms: CD   and  CE  

>  <TORSDO>
F 18

>  <BEGIN_>
RES LYS A 131

$$$$
ligand_18_pose_8_2HRL.pdbqt
 OpenBabel07062320523D

  6  5  0  0  0  0  0  0  0  0999 V2000
   33.1930   34.6630    9.2900 C   0  0  0  0  0  0  0  0  0  0  0  0
   32.0600   35.3600   10.0340 C   0  0  0  0  0  0  0  0  0  0  0  0
   30.8470   35.6190    9.1780 C   0  0  0  0  0  0  0  0  0  0  0  0
   29.9980   34.3630    9.0560 C   0  0  0  0  0  0  0  0  0  0  0  0
   28.9000   34.3580   10.1020 C   0  0  0  0  0  0  0  0  0  0  0  0
   27.7370   33.5420    9.6550 N   0  0  0  0  0  0  0  0  0  0  0  0
  1  2  1  0  0  0  0
  3  2  1  0  0  0  0
  4  3  1  0  0  0  0
  4  5  1  0  0  0  0
  6  5  1  0  0  0  0
M  END
>  <EGIN_R>
ES LYS A 135

>  <REMARK>
  4 active torsions:
  status: ('A' for Active; 'I' for Inactive)
    5  A    between atoms: CA   and  CB  
    6  A    between atoms: CB   and  CG  
    7  A    between atoms: CG   and  CD  
    8  A    between atoms: CD   and  CE  

$$$$
