ligand_47_pose_19_2HRL.pdbqt
 OpenBabel07062320523D

 62 64  0  0  1  0  0  0  0  0999 V2000
   27.0570   37.2410   16.9890 N   0  0  0  0  0  0  0  0  0  0  0  0
   25.8230   37.4670   17.6530 C   0  0  0  0  0  0  0  0  0  0  0  0
   25.7960   38.1790   18.6990 O   0  0  0  0  0  0  0  0  0  0  0  0
   26.9950   36.6330   16.1200 H   0  0  0  0  0  0  0  0  0  0  0  0
   28.3160   37.7860   17.4400 C   0  0  0  0  0  0  0  0  0  0  0  0
   29.3910   37.7530   16.3530 C   0  0  2  0  0  0  0  0  0  0  0  0
   28.9850   36.6770   15.3940 C   0  0  2  0  0  0  0  0  0  0  0  0
   29.9960   35.5730   15.2700 C   0  0  2  0  0  0  0  0  0  0  0  0
   31.5190   34.7280   13.7400 C   0  0  2  0  0  0  0  0  0  0  0  0
   31.7290   33.6150   14.7330 C   0  0  0  0  0  0  0  0  0  0  0  0
   30.8440   35.8140   14.2250 O   0  0  0  0  0  0  0  0  0  0  0  0
   30.4780   33.1990   15.4280 C   0  0  1  0  0  0  0  0  0  0  0  0
   29.3710   34.2060   15.1170 C   0  0  1  0  0  0  0  0  0  0  0  0
   30.8680   34.1870   12.6270 O   0  0  0  0  0  0  0  0  0  0  0  0
   31.1630   34.6350   11.7880 H   0  0  0  0  0  0  0  0  0  0  0  0
   32.8630   35.1780   13.3030 C   0  0  0  0  0  0  0  0  0  0  0  0
   33.8590   34.9260   14.0230 O   0  0  0  0  0  0  0  0  0  0  0  0
   33.0530   35.8680   12.1250 O   0  0  0  0  0  0  0  0  0  0  0  0
   32.4250   35.6950   11.3270 H   0  0  0  0  0  0  0  0  0  0  0  0
   30.0870   31.9030   15.2010 O   0  0  0  0  0  0  0  0  0  0  0  0
   30.6460   31.4800   14.5000 H   0  0  0  0  0  0  0  0  0  0  0  0
   28.2650   34.0260   16.0460 N   0  0  0  0  0  0  0  0  0  0  0  0
   26.9820   33.7410   15.5220 C   0  0  0  0  0  0  0  0  0  0  0  0
   28.4430   34.1090   17.0590 H   0  0  0  0  0  0  0  0  0  0  0  0
   25.8230   33.5480   16.4190 C   0  0  0  0  0  0  0  0  0  0  0  0
   26.8070   33.6480   14.2820 O   0  0  0  0  0  0  0  0  0  0  0  0
   28.6100   37.2220   14.1830 O   0  0  0  0  0  0  0  0  0  0  0  0
   28.0110   36.6220   13.6550 H   0  0  0  0  0  0  0  0  0  0  0  0
   30.5880   37.4180   17.0100 O   0  0  0  0  0  0  0  0  0  0  0  0
   30.7260   38.1620   17.6690 H   0  0  0  0  0  0  0  0  0  0  0  0
   24.6440   36.9240   17.1820 O   0  0  0  0  0  0  0  0  0  0  0  0
   23.9360   37.5130   16.0850 C   0  0  0  0  0  0  0  0  0  0  0  0
   24.5770   37.1620   14.7980 C   0  0  0  0  0  0  0  0  0  0  0  0
   24.2120   36.0800   13.9810 C   0  0  0  0  0  0  0  0  0  0  0  0
   25.5880   37.7420   14.1430 N   0  0  0  0  0  0  0  0  0  0  0  0
   24.9850   36.0440   12.8960 N   0  0  0  0  0  0  0  0  0  0  0  0
   25.8330   37.0900   13.0200 N   0  0  0  0  0  0  0  0  0  0  0  0
   25.0340   35.1850   11.7480 C   0  0  0  0  0  0  0  0  0  0  0  0
   26.0590   35.5090   10.7130 C   0  0  1  0  0  0  0  0  0  0  0  0
   27.2700   34.7070   10.8880 C   0  0  0  0  0  0  0  0  0  0  0  0
   27.6410   33.7730   10.1570 O   0  0  0  0  0  0  0  0  0  0  0  0
   28.1290   34.9800   11.9740 O   0  0  0  0  0  0  0  0  0  0  0  0
   27.9120   34.5700   12.8860 H   0  0  0  0  0  0  0  0  0  0  0  0
   25.4970   35.4050    9.3060 C   0  0  0  0  0  0  0  0  0  0  0  0
   26.4120   36.0070    8.3080 C   0  0  0  0  0  0  0  0  0  0  0  0
   27.1230   35.2130    7.4000 C   0  0  0  0  0  0  0  0  0  0  0  0
   26.6090   37.3720    8.2230 C   0  0  0  0  0  0  0  0  0  0  0  0
   27.9730   35.7710    6.4720 C   0  0  0  0  0  0  0  0  0  0  0  0
   27.4510   37.9430    7.3050 C   0  0  0  0  0  0  0  0  0  0  0  0
   28.1430   37.1560    6.4200 C   0  0  0  0  0  0  0  0  0  0  0  0
   24.1700   36.0090    9.1510 C   0  0  0  0  0  0  0  0  0  0  0  0
   24.0480   37.3810    9.4090 C   0  0  0  0  0  0  0  0  0  0  0  0
   23.0460   35.3090    8.7700 C   0  0  0  0  0  0  0  0  0  0  0  0
   22.8200   37.9840    9.2730 C   0  0  0  0  0  0  0  0  0  0  0  0
   21.8150   35.9110    8.6340 C   0  0  0  0  0  0  0  0  0  0  0  0
   21.6850   37.2720    8.8880 C   0  0  0  0  0  0  0  0  0  0  0  0
   29.8670   25.5550   16.9770 C   0  0  0  0  0  0  0  0  0  0  0  0
   28.3450   25.7220   17.0260 C   0  0  0  0  0  0  0  0  0  0  0  0
   27.6010   24.4050   16.8690 C   0  0  0  0  0  0  0  0  0  0  0  0
   26.2790   24.4120   17.5860 C   0  0  0  0  0  0  0  0  0  0  0  0
   26.2690   25.5290   18.6240 C   0  0  0  0  0  0  0  0  0  0  0  0
   24.9580   26.2200   18.6310 N   0  0  0  0  0  0  0  0  0  0  0  0
  1  5  1  0  0  0  0
  1  2  1  0  0  0  0
  2  3  2  0  0  0  0
  4  1  1  0  0  0  0
  6 29  1  0  0  0  0
  6  5  1  1  0  0  0
  7 27  1  6  0  0  0
  7  6  1  0  0  0  0
  8  7  1  6  0  0  0
  9 14  1  6  0  0  0
  9 11  1  0  0  0  0
  9 10  1  0  0  0  0
 10 12  1  0  0  0  0
 11  8  1  0  0  0  0
 12 20  1  6  0  0  0
 13  8  1  0  0  0  0
 13 12  1  0  0  0  0
 13 22  1  1  0  0  0
 15 14  1  0  0  0  0
 16  9  1  0  0  0  0
 16 17  2  0  0  0  0
 18 16  1  0  0  0  0
 19 18  1  0  0  0  0
 21 20  1  0  0  0  0
 22 24  1  0  0  0  0
 23 22  1  0  0  0  0
 23 25  1  0  0  0  0
 26 23  2  0  0  0  0
 28 27  1  0  0  0  0
 29 30  1  0  0  0  0
 31  2  1  0  0  0  0
 32 31  1  0  0  0  0
 33 32  1  0  0  0  0
 34 33  2  0  0  0  0
 35 33  1  0  0  0  0
 36 37  1  0  0  0  0
 36 34  1  0  0  0  0
 37 35  2  0  0  0  0
 38 36  1  0  0  0  0
 39 40  1  0  0  0  0
 39 38  1  1  0  0  0
 40 42  1  0  0  0  0
 41 40  2  0  0  0  0
 42 43  1  0  0  0  0
 44 39  1  0  0  0  0
 45 44  1  0  0  0  0
 46 45  2  0  0  0  0
 47 45  1  0  0  0  0
 48 46  1  0  0  0  0
 49 47  2  0  0  0  0
 50 48  2  0  0  0  0
 50 49  1  0  0  0  0
 51 44  1  0  0  0  0
 51 52  2  0  0  0  0
 53 51  1  0  0  0  0
 54 52  1  0  0  0  0
 55 53  2  0  0  0  0
 55 56  1  0  0  0  0
 56 54  2  0  0  0  0
 57 58  1  0  0  0  0
 59 58  1  0  0  0  0
 59 60  1  0  0  0  0
 60 61  1  0  0  0  0
 61 62  1  0  0  0  0
M  END
>  <REMARK>
 VINA RESULT:    -5.196      2.907      6.023
 INTER + INTRA:         -16.963
 INTER:                 -10.617
 INTRA:                  -6.345
 UNBOUND:                -6.299
 SMILES CC(=O)N[C@@H]1[C@@H](O)C[C@](O)(C(=O)O)O[C@H]1C(O)[C@H](O)CNC(=O)OCc1cn(C[C@@H](C(=O)O)C(c2ccccc2)c2ccccc2)nn1
 SMILES IDX 21 1 22 2 23 3 20 5 18 6 16 7 15 8 9 9 8 10 14 11 6 12 5 13
 SMILES IDX 10 14 11 16 12 17 13 18 7 20 4 22 2 23 1 25 3 26 17 27 19 29
 SMILES IDX 24 31 25 32 26 33 27 34 48 35 28 36 47 37 29 38 30 39 31 40
 SMILES IDX 32 41 33 42 34 44 35 45 36 46 40 47 37 48 39 49 38 50 41 51
 SMILES IDX 42 52 46 53 43 54 45 55 44 56
 H PARENT 21 4 10 15 13 19 7 21 4 24 17 28 19 30 33 43
 Flexibility Score: inf
  4 active torsions:
  status: ('A' for Active; 'I' for Inactive)
    1  A    between atoms: CA   and  CB  
    2  A    between atoms: CB   and  CG  
    3  A    between atoms: CG   and  CD  
    4  A    between atoms: CD   and  CE  

>  <TORSDO>
F 21

>  <BEGIN_>
RES LYS A 131

$$$$
ligand_47_pose_19_2HRL.pdbqt
 OpenBabel07062320523D

  6  5  0  0  0  0  0  0  0  0999 V2000
   33.1930   34.6630    9.2900 C   0  0  0  0  0  0  0  0  0  0  0  0
   32.0600   35.3600   10.0340 C   0  0  0  0  0  0  0  0  0  0  0  0
   30.7740   35.4240    9.2510 C   0  0  0  0  0  0  0  0  0  0  0  0
   30.2020   36.8320    9.2720 C   0  0  0  0  0  0  0  0  0  0  0  0
   30.1320   37.3570   10.6940 C   0  0  0  0  0  0  0  0  0  0  0  0
   28.9050   38.1740   10.9040 N   0  0  0  0  0  0  0  0  0  0  0  0
  1  2  1  0  0  0  0
  3  4  1  0  0  0  0
  3  2  1  0  0  0  0
  4  5  1  0  0  0  0
  5  6  1  0  0  0  0
M  END
>  <EGIN_R>
ES LYS A 135

>  <REMARK>
  4 active torsions:
  status: ('A' for Active; 'I' for Inactive)
    5  A    between atoms: CA   and  CB  
    6  A    between atoms: CB   and  CG  
    7  A    between atoms: CG   and  CD  
    8  A    between atoms: CD   and  CE  

$$$$
