ligand_58_pose_8_2HRL.pdbqt
 OpenBabel07062320523D

 56 58  0  0  1  0  0  0  0  0999 V2000
   25.3540   28.0950   18.5040 N   0  0  0  0  0  0  0  0  0  0  0  0
   26.1890   28.5240   17.4500 C   0  0  0  0  0  0  0  0  0  0  0  0
   27.2160   27.8680   17.1520 O   0  0  0  0  0  0  0  0  0  0  0  0
   24.5110   28.6630   18.7280 H   0  0  0  0  0  0  0  0  0  0  0  0
   25.6410   26.9140   19.2550 C   0  0  0  0  0  0  0  0  0  0  0  0
   25.9720   27.3140   20.6940 C   0  0  2  0  0  0  0  0  0  0  0  0
   27.4830   27.1980   20.8100 C   0  0  2  0  0  0  0  0  0  0  0  0
   28.2130   28.5100   20.8790 C   0  0  2  0  0  0  0  0  0  0  0  0
   30.3680   27.7660   21.4680 C   0  0  2  0  0  0  0  0  0  0  0  0
   30.2150   28.3350   22.8620 C   0  0  0  0  0  0  0  0  0  0  0  0
   29.5250   28.2590   20.5300 O   0  0  0  0  0  0  0  0  0  0  0  0
   28.7830   28.4750   23.2820 C   0  0  1  0  0  0  0  0  0  0  0  0
   28.0600   29.1920   22.1810 C   0  0  1  0  0  0  0  0  0  0  0  0
   30.1350   26.3960   21.5970 O   0  0  0  0  0  0  0  0  0  0  0  0
   29.1460   26.2690   21.5450 H   0  0  0  0  0  0  0  0  0  0  0  0
   31.8100   27.9150   21.0550 C   0  0  0  0  0  0  0  0  0  0  0  0
   32.6740   28.2990   21.8490 O   0  0  0  0  0  0  0  0  0  0  0  0
   32.1490   27.6100   19.7580 O   0  0  0  0  0  0  0  0  0  0  0  0
   32.1880   28.3640   19.0620 H   0  0  0  0  0  0  0  0  0  0  0  0
   28.2920   27.2350   23.5760 O   0  0  0  0  0  0  0  0  0  0  0  0
   28.8610   26.7640   24.2440 H   0  0  0  0  0  0  0  0  0  0  0  0
   28.6090   30.5610   22.1300 N   0  0  0  0  0  0  0  0  0  0  0  0
   28.1280   31.5920   22.9550 C   0  0  0  0  0  0  0  0  0  0  0  0
   29.3780   30.7530   21.4530 H   0  0  0  0  0  0  0  0  0  0  0  0
   28.7090   32.9580   22.8720 C   0  0  0  0  0  0  0  0  0  0  0  0
   27.1960   31.3720   23.7770 O   0  0  0  0  0  0  0  0  0  0  0  0
   27.8820   26.5490   19.5840 O   0  0  0  0  0  0  0  0  0  0  0  0
   28.6140   27.0260   19.1640 H   0  0  0  0  0  0  0  0  0  0  0  0
   25.3080   26.3940   21.4910 O   0  0  0  0  0  0  0  0  0  0  0  0
   25.4640   26.5250   22.4460 H   0  0  0  0  0  0  0  0  0  0  0  0
   25.9120   29.6690   16.7130 O   0  0  0  0  0  0  0  0  0  0  0  0
   25.6240   30.8600   17.3950 C   0  0  0  0  0  0  0  0  0  0  0  0
   26.8590   31.3420   18.0660 C   0  0  0  0  0  0  0  0  0  0  0  0
   28.1140   31.4500   17.4620 C   0  0  0  0  0  0  0  0  0  0  0  0
   27.0610   31.7600   19.3270 N   0  0  0  0  0  0  0  0  0  0  0  0
   28.9880   31.9130   18.3580 N   0  0  0  0  0  0  0  0  0  0  0  0
   28.3370   32.0940   19.4770 N   0  0  0  0  0  0  0  0  0  0  0  0
   30.4070   32.1790   18.1700 C   0  0  0  0  0  0  0  0  0  0  0  0
   30.6400   33.1010   17.0580 C   0  0  0  0  0  0  0  0  0  0  0  0
   29.9500   34.3140   16.9410 C   0  0  0  0  0  0  0  0  0  0  0  0
   31.5780   32.7950   16.0930 C   0  0  0  0  0  0  0  0  0  0  0  0
   30.2020   35.1710   15.8930 C   0  0  0  0  0  0  0  0  0  0  0  0
   31.8110   33.6720   15.0520 C   0  0  0  0  0  0  0  0  0  0  0  0
   31.1380   34.8690   14.9240 C   0  0  0  0  0  0  0  0  0  0  0  0
   31.1170   32.4720   19.4180 C   0  0  0  0  0  0  0  0  0  0  0  0
   31.5750   33.7740   19.6870 C   0  0  0  0  0  0  0  0  0  0  0  0
   31.3410   31.4850   20.3460 C   0  0  0  0  0  0  0  0  0  0  0  0
   32.2330   34.0560   20.8570 C   0  0  0  0  0  0  0  0  0  0  0  0
   32.0140   31.7840   21.5360 C   0  0  0  0  0  0  0  0  0  0  0  0
   32.4550   33.0620   21.7850 C   0  0  0  0  0  0  0  0  0  0  0  0
   29.8670   25.5550   16.9770 C   0  0  0  0  0  0  0  0  0  0  0  0
   28.3450   25.7220   17.0260 C   0  0  0  0  0  0  0  0  0  0  0  0
   27.5990   24.4460   16.6680 C   0  0  0  0  0  0  0  0  0  0  0  0
   26.9540   23.8120   17.8690 C   0  0  0  0  0  0  0  0  0  0  0  0
   25.5320   23.3850   17.5180 C   0  0  0  0  0  0  0  0  0  0  0  0
   24.8050   24.4960   16.8580 N   0  0  0  0  0  0  0  0  0  0  0  0
  1  4  1  0  0  0  0
  1  5  1  0  0  0  0
  2  1  1  0  0  0  0
  3  2  2  0  0  0  0
  6  5  1  6  0  0  0
  6  7  1  0  0  0  0
  6 29  1  0  0  0  0
  7 27  1  6  0  0  0
  8  7  1  1  0  0  0
  8 13  1  0  0  0  0
  9 16  1  6  0  0  0
  9 14  1  0  0  0  0
  9 10  1  0  0  0  0
 10 12  1  0  0  0  0
 11  8  1  0  0  0  0
 11  9  1  0  0  0  0
 12 20  1  6  0  0  0
 13 22  1  6  0  0  0
 13 12  1  0  0  0  0
 15 14  1  0  0  0  0
 16 17  2  0  0  0  0
 18 16  1  0  0  0  0
 19 18  1  0  0  0  0
 20 21  1  0  0  0  0
 22 23  1  0  0  0  0
 23 26  2  0  0  0  0
 24 22  1  0  0  0  0
 25 23  1  0  0  0  0
 28 27  1  0  0  0  0
 29 30  1  0  0  0  0
 31 32  1  0  0  0  0
 31  2  1  0  0  0  0
 32 33  1  0  0  0  0
 33 35  1  0  0  0  0
 34 33  2  0  0  0  0
 34 36  1  0  0  0  0
 35 37  2  0  0  0  0
 36 37  1  0  0  0  0
 38 36  1  0  0  0  0
 38 45  1  0  0  0  0
 39 38  1  0  0  0  0
 40 39  1  0  0  0  0
 41 39  2  0  0  0  0
 42 40  2  0  0  0  0
 43 41  1  0  0  0  0
 44 43  2  0  0  0  0
 44 42  1  0  0  0  0
 45 46  2  0  0  0  0
 45 47  1  0  0  0  0
 46 48  1  0  0  0  0
 47 49  2  0  0  0  0
 48 50  2  0  0  0  0
 49 50  1  0  0  0  0
 51 52  1  0  0  0  0
 53 52  1  0  0  0  0
 53 54  1  0  0  0  0
 55 54  1  0  0  0  0
 56 55  1  0  0  0  0
M  END
>  <REMARK>
 VINA RESULT:    -5.805      3.846      8.871
 INTER + INTRA:         -16.217
 INTER:                  -8.515
 INTRA:                  -7.702
 UNBOUND:                -5.490
 SMILES CC(=O)N[C@@H]1[C@@H](O)C[C@](O)(C(=O)O)O[C@H]1C(O)[C@H](O)CNC(=O)OCc1cn(C(c2ccccc2)c2ccccc2)nn1
 SMILES IDX 21 1 22 2 23 3 20 5 18 6 16 7 15 8 9 9 8 10 14 11 6 12 5 13
 SMILES IDX 10 14 11 16 12 17 13 18 7 20 4 22 2 23 1 25 3 26 17 27 19 29
 SMILES IDX 24 31 25 32 26 33 27 34 43 35 28 36 42 37 29 38 30 39 31 40
 SMILES IDX 35 41 32 42 34 43 33 44 36 45 37 46 41 47 38 48 40 49 39 50
 H PARENT 21 4 10 15 13 19 7 21 4 24 17 28 19 30
 Flexibility Score: inf
  4 active torsions:
  status: ('A' for Active; 'I' for Inactive)
    1  A    between atoms: CA   and  CB  
    2  A    between atoms: CB   and  CG  
    3  A    between atoms: CG   and  CD  
    4  A    between atoms: CD   and  CE  

>  <TORSDO>
F 17

>  <BEGIN_>
RES LYS A 131

$$$$
ligand_58_pose_8_2HRL.pdbqt
 OpenBabel07062320523D

  6  5  0  0  0  0  0  0  0  0999 V2000
   33.1930   34.6630    9.2900 C   0  0  0  0  0  0  0  0  0  0  0  0
   32.0600   35.3600   10.0340 C   0  0  0  0  0  0  0  0  0  0  0  0
   30.7270   34.6730    9.8830 C   0  0  0  0  0  0  0  0  0  0  0  0
   30.3230   34.6030    8.4180 C   0  0  0  0  0  0  0  0  0  0  0  0
   28.8140   34.5390    8.2850 C   0  0  0  0  0  0  0  0  0  0  0  0
   28.1980   33.8750    9.4670 N   0  0  0  0  0  0  0  0  0  0  0  0
  1  2  1  0  0  0  0
  3  2  1  0  0  0  0
  4  3  1  0  0  0  0
  5  4  1  0  0  0  0
  5  6  1  0  0  0  0
M  END
>  <EGIN_R>
ES LYS A 135

>  <REMARK>
  4 active torsions:
  status: ('A' for Active; 'I' for Inactive)
    5  A    between atoms: CA   and  CB  
    6  A    between atoms: CB   and  CG  
    7  A    between atoms: CG   and  CD  
    8  A    between atoms: CD   and  CE  

$$$$
