ligand_78_pose_15_2HRL.pdbqt
 OpenBabel07062320523D

 53 54  0  0  1  0  0  0  0  0999 V2000
   28.9990   27.6840   23.1230 N   0  0  0  0  0  0  0  0  0  0  0  0
   28.7860   26.7040   24.1590 C   0  0  0  0  0  0  0  0  0  0  0  0
   28.0230   25.7530   23.9350 O   0  0  0  0  0  0  0  0  0  0  0  0
   29.6540   28.4440   23.3880 H   0  0  0  0  0  0  0  0  0  0  0  0
   28.3280   27.5590   21.8420 C   0  0  0  0  0  0  0  0  0  0  0  0
   29.2780   27.5780   20.6920 C   0  0  2  0  0  0  0  0  0  0  0  0
   30.6880   27.8920   21.0600 C   0  0  2  0  0  0  0  0  0  0  0  0
   31.2240   29.2060   20.6190 C   0  0  2  0  0  0  0  0  0  0  0  0
   32.9640   29.2490   22.1810 C   0  0  2  0  0  0  0  0  0  0  0  0
   32.0380   29.8900   23.1620 C   0  0  0  0  0  0  0  0  0  0  0  0
   32.5930   29.2860   20.8610 O   0  0  0  0  0  0  0  0  0  0  0  0
   30.9170   30.6790   22.6090 C   0  0  1  0  0  0  0  0  0  0  0  0
   30.6360   30.4520   21.1500 C   0  0  1  0  0  0  0  0  0  0  0  0
   33.1930   27.9090   22.4970 O   0  0  0  0  0  0  0  0  0  0  0  0
   33.6640   27.7720   23.3340 H   0  0  0  0  0  0  0  0  0  0  0  0
   34.2820   29.9320   22.2550 C   0  0  0  0  0  0  0  0  0  0  0  0
   34.4010   31.0830   21.7840 O   0  0  0  0  0  0  0  0  0  0  0  0
   35.4060   29.3520   22.8300 O   0  0  0  0  0  0  0  0  0  0  0  0
   36.0720   29.9170   23.3750 H   0  0  0  0  0  0  0  0  0  0  0  0
   29.7770   30.4600   23.3800 O   0  0  0  0  0  0  0  0  0  0  0  0
   29.4480   29.5440   23.3220 H   0  0  0  0  0  0  0  0  0  0  0  0
   31.1220   31.5700   20.3340 N   0  0  0  0  0  0  0  0  0  0  0  0
   30.4750   31.9580   19.1410 C   0  0  0  0  0  0  0  0  0  0  0  0
   31.9650   32.0980   20.6310 H   0  0  0  0  0  0  0  0  0  0  0  0
   30.9570   33.0940   18.2980 C   0  0  0  0  0  0  0  0  0  0  0  0
   29.4580   31.3060   18.7990 O   0  0  0  0  0  0  0  0  0  0  0  0
   31.4400   26.9640   20.2140 O   0  0  0  0  0  0  0  0  0  0  0  0
   32.3570   27.2900   20.2220 H   0  0  0  0  0  0  0  0  0  0  0  0
   28.8430   28.2440   19.5630 O   0  0  0  0  0  0  0  0  0  0  0  0
   29.2290   27.8750   18.7330 H   0  0  0  0  0  0  0  0  0  0  0  0
   29.4150   26.8080   25.3840 O   0  0  0  0  0  0  0  0  0  0  0  0
   30.5860   27.5800   25.5800 C   0  0  0  0  0  0  0  0  0  0  0  0
   31.7790   26.7340   25.7320 C   0  0  0  0  0  0  0  0  0  0  0  0
   33.0950   27.0710   25.8700 C   0  0  0  0  0  0  0  0  0  0  0  0
   31.7500   25.3840   25.7580 N   0  0  0  0  0  0  0  0  0  0  0  0
   33.8210   25.9290   25.9740 N   0  0  0  0  0  0  0  0  0  0  0  0
   32.9710   24.9170   25.9020 N   0  0  0  0  0  0  0  0  0  0  0  0
   35.2490   25.8770   26.1340 C   0  0  0  0  0  0  0  0  0  0  0  0
   36.0460   25.6660   24.5480 S   0  0  0  0  0  0  0  0  0  0  0  0
   37.4550   26.1900   24.6660 O   0  0  0  0  0  0  0  0  0  0  0  0
   35.2900   26.4640   23.5530 O   0  0  0  0  0  0  0  0  0  0  0  0
   36.0510   23.9580   24.1490 C   0  0  0  0  0  0  0  0  0  0  0  0
   36.2720   23.6000   22.8230 C   0  0  0  0  0  0  0  0  0  0  0  0
   35.8430   23.0160   25.1270 C   0  0  0  0  0  0  0  0  0  0  0  0
   36.2760   22.2610   22.5130 C   0  0  0  0  0  0  0  0  0  0  0  0
   35.8560   21.6870   24.7630 C   0  0  0  0  0  0  0  0  0  0  0  0
   36.0680   21.2720   23.4700 C   0  0  0  0  0  0  0  0  0  0  0  0
   29.8670   25.5550   16.9770 C   0  0  0  0  0  0  0  0  0  0  0  0
   28.3450   25.7220   17.0260 C   0  0  0  0  0  0  0  0  0  0  0  0
   27.6010   24.4020   16.8910 C   0  0  0  0  0  0  0  0  0  0  0  0
   26.6280   24.1830   18.0160 C   0  0  0  0  0  0  0  0  0  0  0  0
   25.2040   24.3670   17.5010 C   0  0  0  0  0  0  0  0  0  0  0  0
   24.2220   23.9780   18.5410 N   0  0  0  0  0  0  0  0  0  0  0  0
  1  4  1  0  0  0  0
  1  2  1  0  0  0  0
  2 31  1  0  0  0  0
  3  2  2  0  0  0  0
  5  1  1  0  0  0  0
  6  7  1  0  0  0  0
  6  5  1  1  0  0  0
  7 27  1  6  0  0  0
  8 11  1  0  0  0  0
  8  7  1  1  0  0  0
  8 13  1  0  0  0  0
  9 16  1  1  0  0  0
  9 14  1  0  0  0  0
  9 10  1  0  0  0  0
 11  9  1  0  0  0  0
 12 10  1  0  0  0  0
 12 20  1  1  0  0  0
 13 22  1  6  0  0  0
 13 12  1  0  0  0  0
 14 15  1  0  0  0  0
 16 18  1  0  0  0  0
 17 16  2  0  0  0  0
 18 19  1  0  0  0  0
 21 20  1  0  0  0  0
 22 24  1  0  0  0  0
 23 22  1  0  0  0  0
 25 23  1  0  0  0  0
 26 23  2  0  0  0  0
 27 28  1  0  0  0  0
 29  6  1  0  0  0  0
 30 29  1  0  0  0  0
 31 32  1  0  0  0  0
 32 33  1  0  0  0  0
 33 35  1  0  0  0  0
 33 34  2  0  0  0  0
 34 36  1  0  0  0  0
 35 37  2  0  0  0  0
 36 38  1  0  0  0  0
 37 36  1  0  0  0  0
 39 40  2  0  0  0  0
 39 38  1  0  0  0  0
 41 39  2  0  0  0  0
 42 39  1  0  0  0  0
 42 44  2  0  0  0  0
 43 42  1  0  0  0  0
 45 43  2  0  0  0  0
 45 47  1  0  0  0  0
 46 44  1  0  0  0  0
 47 46  2  0  0  0  0
 48 49  1  0  0  0  0
 50 49  1  0  0  0  0
 50 51  1  0  0  0  0
 52 51  1  0  0  0  0
 52 53  1  0  0  0  0
M  END
>  <REMARK>
 VINA RESULT:    -5.192      5.991      8.763
 INTER + INTRA:         -14.605
 INTER:                  -8.445
 INTRA:                  -6.160
 UNBOUND:                -5.011
 SMILES CC(=O)N[C@@H]1[C@@H](O)C[C@](O)(C(=O)O)O[C@H]1C(O)[C@H](O)CNC(=O)OCc1cn(CS(=O)(=O)c2ccccc2)nn1
 SMILES IDX 21 1 22 2 23 3 20 5 18 6 16 7 15 8 9 9 8 10 14 11 6 12 5 13
 SMILES IDX 10 14 11 16 12 17 13 18 7 20 4 22 2 23 1 25 3 26 17 27 19 29
 SMILES IDX 24 31 25 32 26 33 27 34 40 35 28 36 39 37 29 38 30 39 31 40
 SMILES IDX 32 41 33 42 34 43 38 44 35 45 37 46 36 47
 H PARENT 21 4 10 15 13 19 7 21 4 24 17 28 19 30
 Flexibility Score: inf
  4 active torsions:
  status: ('A' for Active; 'I' for Inactive)
    1  A    between atoms: CA   and  CB  
    2  A    between atoms: CB   and  CG  
    3  A    between atoms: CG   and  CD  
    4  A    between atoms: CD   and  CE  

>  <TORSDO>
F 17

>  <BEGIN_>
RES LYS A 131

$$$$
ligand_78_pose_15_2HRL.pdbqt
 OpenBabel07062320523D

  6  5  0  0  0  0  0  0  0  0999 V2000
   33.1930   34.6630    9.2900 C   0  0  0  0  0  0  0  0  0  0  0  0
   32.0600   35.3600   10.0340 C   0  0  0  0  0  0  0  0  0  0  0  0
   30.7070   34.7480    9.7810 C   0  0  0  0  0  0  0  0  0  0  0  0
   30.4950   34.5090    8.2940 C   0  0  0  0  0  0  0  0  0  0  0  0
   29.0850   34.8900    7.8880 C   0  0  0  0  0  0  0  0  0  0  0  0
   28.6830   36.1880    8.4990 N   0  0  0  0  0  0  0  0  0  0  0  0
  1  2  1  0  0  0  0
  3  2  1  0  0  0  0
  4  3  1  0  0  0  0
  5  4  1  0  0  0  0
  5  6  1  0  0  0  0
M  END
>  <EGIN_R>
ES LYS A 135

>  <REMARK>
  4 active torsions:
  status: ('A' for Active; 'I' for Inactive)
    5  A    between atoms: CA   and  CB  
    6  A    between atoms: CB   and  CG  
    7  A    between atoms: CG   and  CD  
    8  A    between atoms: CD   and  CE  

$$$$
