ligand_22_pose_3_2HRL.pdbqt
 OpenBabel07062320523D

 50 50  0  0  1  0  0  0  0  0999 V2000
   25.2610   34.5510   14.2450 N   0  0  0  0  0  0  0  0  0  0  0  0
   24.3200   33.5390   13.9430 C   0  0  0  0  0  0  0  0  0  0  0  0
   24.3400   32.9460   12.8100 O   0  0  0  0  0  0  0  0  0  0  0  0
   25.2390   35.0230   15.1680 H   0  0  0  0  0  0  0  0  0  0  0  0
   26.2370   34.8870   13.2390 C   0  0  0  0  0  0  0  0  0  0  0  0
   27.5560   35.3390   13.7570 C   0  0  2  0  0  0  0  0  0  0  0  0
   28.3130   34.2660   14.4980 C   0  0  1  0  0  0  0  0  0  0  0  0
   29.7280   34.7910   14.7690 C   0  0  2  0  0  0  0  0  0  0  0  0
   31.7350   35.0380   13.6190 C   0  0  2  0  0  0  0  0  0  0  0  0
   32.5040   34.4350   14.7740 C   0  0  0  0  0  0  0  0  0  0  0  0
   30.4190   34.6450   13.5710 O   0  0  0  0  0  0  0  0  0  0  0  0
   31.6770   33.3810   15.4480 C   0  0  1  0  0  0  0  0  0  0  0  0
   30.3600   33.9910   15.8870 C   0  0  1  0  0  0  0  0  0  0  0  0
   32.3370   34.5430   12.4510 O   0  0  0  0  0  0  0  0  0  0  0  0
   33.1870   34.9940   12.2980 H   0  0  0  0  0  0  0  0  0  0  0  0
   31.8730   36.5100   13.6120 C   0  0  0  0  0  0  0  0  0  0  0  0
   31.6440   37.1550   12.5690 O   0  0  0  0  0  0  0  0  0  0  0  0
   32.2540   37.2180   14.7420 O   0  0  0  0  0  0  0  0  0  0  0  0
   31.8670   37.0290   15.6550 H   0  0  0  0  0  0  0  0  0  0  0  0
   31.5040   32.2520   14.6840 O   0  0  0  0  0  0  0  0  0  0  0  0
   31.3850   31.4220   15.1950 H   0  0  0  0  0  0  0  0  0  0  0  0
   30.6610   34.8470   17.0340 N   0  0  0  0  0  0  0  0  0  0  0  0
   30.0900   34.5970   18.3120 C   0  0  0  0  0  0  0  0  0  0  0  0
   31.3030   35.6590   16.9250 H   0  0  0  0  0  0  0  0  0  0  0  0
   30.3860   35.4610   19.4930 C   0  0  0  0  0  0  0  0  0  0  0  0
   29.3120   33.5940   18.3920 O   0  0  0  0  0  0  0  0  0  0  0  0
   27.7170   33.8180   15.6440 O   0  0  0  0  0  0  0  0  0  0  0  0
   28.1510   34.1910   16.4350 H   0  0  0  0  0  0  0  0  0  0  0  0
   27.2780   36.4000   14.6570 O   0  0  0  0  0  0  0  0  0  0  0  0
   27.1850   36.0140   15.5750 H   0  0  0  0  0  0  0  0  0  0  0  0
   23.3350   33.1220   14.8160 O   0  0  0  0  0  0  0  0  0  0  0  0
   23.3900   31.8310   15.4470 C   0  0  0  0  0  0  0  0  0  0  0  0
   24.6510   31.7680   16.2290 C   0  0  0  0  0  0  0  0  0  0  0  0
   25.5360   30.7010   16.2440 C   0  0  0  0  0  0  0  0  0  0  0  0
   25.1960   32.6770   17.0590 N   0  0  0  0  0  0  0  0  0  0  0  0
   26.5730   30.9870   17.0640 N   0  0  0  0  0  0  0  0  0  0  0  0
   26.3330   32.1940   17.5410 N   0  0  0  0  0  0  0  0  0  0  0  0
   27.7000   30.1190   17.3370 C   0  0  0  0  0  0  0  0  0  0  0  0
   28.0020   30.1040   18.8210 C   0  0  0  0  0  0  0  0  0  0  0  0
   27.3790   28.7150   16.8660 C   0  0  0  0  0  0  0  0  0  0  0  0
   28.9310   30.6100   16.6500 C   0  0  0  0  0  0  0  0  0  0  0  0
   28.8350   30.8980   15.4300 O   0  0  0  0  0  0  0  0  0  0  0  0
   30.1380   30.7520   17.3070 O   0  0  0  0  0  0  0  0  0  0  0  0
   30.1200   30.7340   18.3230 H   0  0  0  0  0  0  0  0  0  0  0  0
   29.8670   25.5550   16.9770 C   0  0  0  0  0  0  0  0  0  0  0  0
   28.3450   25.7220   17.0260 C   0  0  0  0  0  0  0  0  0  0  0  0
   27.6020   24.3980   16.9350 C   0  0  0  0  0  0  0  0  0  0  0  0
   26.6480   24.2030   18.0800 C   0  0  0  0  0  0  0  0  0  0  0  0
   25.5380   23.2440   17.6620 C   0  0  0  0  0  0  0  0  0  0  0  0
   24.4710   23.9720   16.9350 N   0  0  0  0  0  0  0  0  0  0  0  0
  1  4  1  0  0  0  0
  2  1  1  0  0  0  0
  2 31  1  0  0  0  0
  3  2  2  0  0  0  0
  5  1  1  0  0  0  0
  6  5  1  1  0  0  0
  6  7  1  0  0  0  0
  6 29  1  0  0  0  0
  7 27  1  1  0  0  0
  8  7  1  6  0  0  0
  8 13  1  0  0  0  0
  9 14  1  6  0  0  0
  9 10  1  0  0  0  0
 10 12  1  0  0  0  0
 11  9  1  0  0  0  0
 11  8  1  0  0  0  0
 12 20  1  6  0  0  0
 12 13  1  0  0  0  0
 13 22  1  1  0  0  0
 15 14  1  0  0  0  0
 16  9  1  0  0  0  0
 16 18  1  0  0  0  0
 17 16  2  0  0  0  0
 18 19  1  0  0  0  0
 20 21  1  0  0  0  0
 22 23  1  0  0  0  0
 23 26  2  0  0  0  0
 23 25  1  0  0  0  0
 24 22  1  0  0  0  0
 27 28  1  0  0  0  0
 29 30  1  0  0  0  0
 31 32  1  0  0  0  0
 32 33  1  0  0  0  0
 33 34  2  0  0  0  0
 33 35  1  0  0  0  0
 34 36  1  0  0  0  0
 35 37  2  0  0  0  0
 36 38  1  0  0  0  0
 36 37  1  0  0  0  0
 38 39  1  0  0  0  0
 40 38  1  0  0  0  0
 41 43  1  0  0  0  0
 41 38  1  0  0  0  0
 42 41  2  0  0  0  0
 43 44  1  0  0  0  0
 45 46  1  0  0  0  0
 47 46  1  0  0  0  0
 47 48  1  0  0  0  0
 49 48  1  0  0  0  0
 50 49  1  0  0  0  0
M  END
>  <REMARK>
 VINA RESULT:    -5.053      2.121      4.062
 INTER + INTRA:         -14.766
 INTER:                  -7.792
 INTRA:                  -6.974
 UNBOUND:                -5.578
 SMILES CC(=O)N[C@@H]1[C@@H](O)C[C@](O)(C(=O)O)O[C@H]1C(O)[C@H](O)CNC(=O)OCc1cn(C(C)(C)C(=O)O)nn1
 SMILES IDX 21 1 22 2 23 3 20 5 18 6 16 7 15 8 9 9 8 10 14 11 6 12 5 13
 SMILES IDX 10 14 11 16 12 17 13 18 7 20 4 22 2 23 1 25 3 26 17 27 19 29
 SMILES IDX 24 31 25 32 26 33 27 34 36 35 28 36 35 37 29 38 30 39 31 40
 SMILES IDX 32 41 33 42 34 43
 H PARENT 21 4 10 15 13 19 7 21 4 24 17 28 19 30 34 44
 Flexibility Score: inf
  4 active torsions:
  status: ('A' for Active; 'I' for Inactive)
    1  A    between atoms: CA   and  CB  
    2  A    between atoms: CB   and  CG  
    3  A    between atoms: CG   and  CD  
    4  A    between atoms: CD   and  CE  

>  <TORSDO>
F 17

>  <BEGIN_>
RES LYS A 131

$$$$
ligand_22_pose_3_2HRL.pdbqt
 OpenBabel07062320523D

  6  5  0  0  0  0  0  0  0  0999 V2000
   33.1930   34.6630    9.2900 C   0  0  0  0  0  0  0  0  0  0  0  0
   32.0600   35.3600   10.0340 C   0  0  0  0  0  0  0  0  0  0  0  0
   30.8210   35.5560    9.1980 C   0  0  0  0  0  0  0  0  0  0  0  0
   29.9430   34.3150    9.2410 C   0  0  0  0  0  0  0  0  0  0  0  0
   28.8140   34.4950   10.2370 C   0  0  0  0  0  0  0  0  0  0  0  0
   27.5970   33.7520    9.8090 N   0  0  0  0  0  0  0  0  0  0  0  0
  1  2  1  0  0  0  0
  3  4  1  0  0  0  0
  3  2  1  0  0  0  0
  4  5  1  0  0  0  0
  6  5  1  0  0  0  0
M  END
>  <EGIN_R>
ES LYS A 135

>  <REMARK>
  4 active torsions:
  status: ('A' for Active; 'I' for Inactive)
    5  A    between atoms: CA   and  CB  
    6  A    between atoms: CB   and  CG  
    7  A    between atoms: CG   and  CD  
    8  A    between atoms: CD   and  CE  

$$$$
