ligand_30_pose_19_2HRL.pdbqt
 OpenBabel07062320523D

 57 57  0  0  1  0  0  0  0  0999 V2000
   25.3390   34.8020   14.5580 C   0  0  0  0  0  0  0  0  0  0  0  0
   24.8590   34.9640   13.2130 N   0  0  0  0  0  0  0  0  0  0  0  0
   24.6460   35.3220   11.0590 C   0  0  0  0  0  0  0  0  0  0  0  0
   25.5510   35.2930   12.0850 C   0  0  0  0  0  0  0  0  0  0  0  0
   23.4370   35.0140   11.5770 N   0  0  0  0  0  0  0  0  0  0  0  0
   23.6000   34.8070   12.8560 N   0  0  0  0  0  0  0  0  0  0  0  0
   24.9660   35.6390    9.6510 C   0  0  0  0  0  0  0  0  0  0  0  0
   23.7920   35.6750    8.8690 O   0  0  0  0  0  0  0  0  0  0  0  0
   23.1020   36.8650    8.6800 C   0  0  0  0  0  0  0  0  0  0  0  0
   22.9880   37.8320    9.7140 N   0  0  0  0  0  0  0  0  0  0  0  0
   23.4240   37.6630   10.6450 H   0  0  0  0  0  0  0  0  0  0  0  0
   22.5640   37.0750    7.5390 O   0  0  0  0  0  0  0  0  0  0  0  0
   22.2690   39.0440    9.4760 C   0  0  0  0  0  0  0  0  0  0  0  0
   20.9360   39.0820   10.1930 C   0  0  2  0  0  0  0  0  0  0  0  0
   19.8280   38.7680    9.2340 C   0  0  2  0  0  0  0  0  0  0  0  0
   19.3130   37.3670    9.4820 C   0  0  2  0  0  0  0  0  0  0  0  0
   19.9890   35.3240   10.3420 C   0  0  2  0  0  0  0  0  0  0  0  0
   18.8710   34.7920    9.4740 C   0  0  0  0  0  0  0  0  0  0  0  0
   20.3300   36.6290   10.0240 O   0  0  0  0  0  0  0  0  0  0  0  0
   19.0590   35.3310    8.0830 C   0  0  1  0  0  0  0  0  0  0  0  0
   18.7890   36.8400    8.1700 C   0  0  1  0  0  0  0  0  0  0  0  0
   21.1060   34.5360   10.0820 O   0  0  0  0  0  0  0  0  0  0  0  0
   21.8870   35.0870    9.8470 H   0  0  0  0  0  0  0  0  0  0  0  0
   19.5930   35.1490   11.7400 C   0  0  0  0  0  0  0  0  0  0  0  0
   18.3830   34.9750   12.0200 O   0  0  0  0  0  0  0  0  0  0  0  0
   20.4820   35.1610   12.8080 O   0  0  0  0  0  0  0  0  0  0  0  0
   20.6410   34.2810   13.3220 H   0  0  0  0  0  0  0  0  0  0  0  0
   20.3240   35.0590    7.6080 O   0  0  0  0  0  0  0  0  0  0  0  0
   20.8850   34.7760    8.3730 H   0  0  0  0  0  0  0  0  0  0  0  0
   17.3510   36.9830    8.0830 N   0  0  0  0  0  0  0  0  0  0  0  0
   16.8220   37.9610    7.2090 C   0  0  0  0  0  0  0  0  0  0  0  0
   16.6960   36.3850    8.6460 H   0  0  0  0  0  0  0  0  0  0  0  0
   15.3420   38.1400    7.0910 C   0  0  0  0  0  0  0  0  0  0  0  0
   17.5860   38.6780    6.5350 O   0  0  0  0  0  0  0  0  0  0  0  0
   20.3260   38.9230    7.9360 O   0  0  0  0  0  0  0  0  0  0  0  0
   20.7090   39.8020    7.7700 H   0  0  0  0  0  0  0  0  0  0  0  0
   20.6880   40.3400   10.7430 O   0  0  0  0  0  0  0  0  0  0  0  0
   19.7320   40.5180   10.8110 H   0  0  0  0  0  0  0  0  0  0  0  0
   25.5840   33.3390   14.8180 C   0  0  0  0  0  0  0  0  0  0  0  0
   24.4960   32.6990   15.6320 C   0  0  0  0  0  0  0  0  0  0  0  0
   23.9200   31.4760   14.9640 C   0  0  0  0  0  0  0  0  0  0  0  0
   24.5740   31.2830   13.5990 C   0  0  0  0  0  0  0  0  0  0  0  0
   24.0940   29.9820   13.0110 C   0  0  0  0  0  0  0  0  0  0  0  0
   23.3180   29.1750   14.0110 C   0  0  0  0  0  0  0  0  0  0  0  0
   21.9740   28.8160   13.4700 C   0  0  0  0  0  0  0  0  0  0  0  0
   21.6760   29.5880   12.1880 C   0  0  0  0  0  0  0  0  0  0  0  0
   20.4200   30.4110   12.3000 C   0  0  0  0  0  0  0  0  0  0  0  0
   20.8370   31.7530   12.8150 C   0  0  0  0  0  0  0  0  0  0  0  0
   20.4310   32.2320   13.8940 O   0  0  0  0  0  0  0  0  0  0  0  0
   21.7260   32.5210   12.0610 O   0  0  0  0  0  0  0  0  0  0  0  0
   22.5830   32.8310   12.4870 H   0  0  0  0  0  0  0  0  0  0  0  0
   29.8670   25.5550   16.9770 C   0  0  0  0  0  0  0  0  0  0  0  0
   28.3450   25.7220   17.0260 C   0  0  0  0  0  0  0  0  0  0  0  0
   27.8430   26.1680   18.3910 C   0  0  0  0  0  0  0  0  0  0  0  0
   26.4460   25.6850   18.6660 C   0  0  0  0  0  0  0  0  0  0  0  0
   25.5400   26.8800   18.9460 C   0  0  0  0  0  0  0  0  0  0  0  0
   25.4280   27.7390   17.7430 N   0  0  0  0  0  0  0  0  0  0  0  0
  1 39  1  0  0  0  0
  2  1  1  0  0  0  0
  3  5  1  0  0  0  0
  3  4  2  0  0  0  0
  4  2  1  0  0  0  0
  5  6  2  0  0  0  0
  6  2  1  0  0  0  0
  7  3  1  0  0  0  0
  8  7  1  0  0  0  0
  9  8  1  0  0  0  0
  9 10  1  0  0  0  0
 10 11  1  0  0  0  0
 12  9  2  0  0  0  0
 13 10  1  0  0  0  0
 14 13  1  6  0  0  0
 14 37  1  0  0  0  0
 15 35  1  6  0  0  0
 15 14  1  0  0  0  0
 16 15  1  6  0  0  0
 16 19  1  0  0  0  0
 17 22  1  6  0  0  0
 17 24  1  0  0  0  0
 18 17  1  0  0  0  0
 19 17  1  0  0  0  0
 20 28  1  1  0  0  0
 20 21  1  0  0  0  0
 20 18  1  0  0  0  0
 21 30  1  1  0  0  0
 21 16  1  0  0  0  0
 23 22  1  0  0  0  0
 24 25  2  0  0  0  0
 24 26  1  0  0  0  0
 26 27  1  0  0  0  0
 28 29  1  0  0  0  0
 30 32  1  0  0  0  0
 31 30  1  0  0  0  0
 33 31  1  0  0  0  0
 34 31  2  0  0  0  0
 36 35  1  0  0  0  0
 37 38  1  0  0  0  0
 39 40  1  0  0  0  0
 41 40  1  0  0  0  0
 42 41  1  0  0  0  0
 43 42  1  0  0  0  0
 43 44  1  0  0  0  0
 45 44  1  0  0  0  0
 46 47  1  0  0  0  0
 46 45  1  0  0  0  0
 47 48  1  0  0  0  0
 48 49  2  0  0  0  0
 50 51  1  0  0  0  0
 50 48  1  0  0  0  0
 52 53  1  0  0  0  0
 53 54  1  0  0  0  0
 54 55  1  0  0  0  0
 55 56  1  0  0  0  0
 57 56  1  0  0  0  0
M  END
>  <REMARK>
 VINA RESULT:    -3.532      6.185     11.355
 INTER + INTRA:         -16.578
 INTER:                  -8.281
 INTRA:                  -8.298
 UNBOUND:                -8.298
 SMILES CC(=O)N[C@@H]1[C@@H](O)C[C@](O)(C(=O)O)O[C@H]1C(O)[C@H](O)CNC(=O)OCc1cn(CCCCCCCCCCC(=O)O)nn1
 SMILES IDX 29 1 28 2 26 3 27 4 43 5 42 6 25 7 24 8 22 9 21 10 23 12
 SMILES IDX 20 13 18 14 16 15 15 16 9 17 8 18 14 19 6 20 5 21 10 22
 SMILES IDX 11 24 12 25 13 26 7 28 4 30 2 31 1 33 3 34 17 35 19 37 30 39
 SMILES IDX 31 40 32 41 33 42 34 43 35 44 36 45 37 46 38 47 39 48 40 49
 SMILES IDX 41 50
 H PARENT 21 11 10 23 13 27 7 29 4 32 17 36 19 38 41 51
 Flexibility Score: inf
  4 active torsions:
  status: ('A' for Active; 'I' for Inactive)
    1  A    between atoms: CA   and  CB  
    2  A    between atoms: CB   and  CG  
    3  A    between atoms: CG   and  CD  
    4  A    between atoms: CD   and  CE  

>  <TORSDO>
F 26

>  <BEGIN_>
RES LYS A 131

$$$$
ligand_30_pose_19_2HRL.pdbqt
 OpenBabel07062320523D

  6  5  0  0  0  0  0  0  0  0999 V2000
   33.1930   34.6630    9.2900 C   0  0  0  0  0  0  0  0  0  0  0  0
   32.0600   35.3600   10.0340 C   0  0  0  0  0  0  0  0  0  0  0  0
   30.8790   35.6930    9.1590 C   0  0  0  0  0  0  0  0  0  0  0  0
   30.3950   34.4560    8.4180 C   0  0  0  0  0  0  0  0  0  0  0  0
   28.8800   34.4320    8.3550 C   0  0  0  0  0  0  0  0  0  0  0  0
   28.2990   33.8730    9.6070 N   0  0  0  0  0  0  0  0  0  0  0  0
  1  2  1  0  0  0  0
  3  2  1  0  0  0  0
  4  3  1  0  0  0  0
  5  4  1  0  0  0  0
  5  6  1  0  0  0  0
M  END
>  <EGIN_R>
ES LYS A 135

>  <REMARK>
  4 active torsions:
  status: ('A' for Active; 'I' for Inactive)
    5  A    between atoms: CA   and  CB  
    6  A    between atoms: CB   and  CG  
    7  A    between atoms: CG   and  CD  
    8  A    between atoms: CD   and  CE  

$$$$
