ligand_3_pose_13_2HRL.pdbqt
 OpenBabel07062320523D

 49 50  0  0  1  0  0  0  0  0999 V2000
   26.2410   35.2950   14.9090 C   0  0  0  0  0  0  0  0  0  0  0  0
   27.5840   35.1300   14.2270 C   0  0  2  0  0  0  0  0  0  0  0  0
   28.3590   33.9580   14.7850 C   0  0  1  0  0  0  0  0  0  0  0  0
   29.4410   34.3760   15.7250 C   0  0  2  0  0  0  0  0  0  0  0  0
   31.4780   34.3480   14.5560 C   0  0  2  0  0  0  0  0  0  0  0  0
   31.8590   33.0110   15.0860 C   0  0  0  0  0  0  0  0  0  0  0  0
   30.4890   35.0140   15.1750 O   0  0  0  0  0  0  0  0  0  0  0  0
   30.7940   32.3220   15.8870 C   0  0  1  0  0  0  0  0  0  0  0  0
   29.9080   33.2720   16.6290 C   0  0  1  0  0  0  0  0  0  0  0  0
   31.0980   34.1500   13.2110 O   0  0  0  0  0  0  0  0  0  0  0  0
   30.2630   34.6780   13.0670 H   0  0  0  0  0  0  0  0  0  0  0  0
   32.6760   35.2290   14.5010 C   0  0  0  0  0  0  0  0  0  0  0  0
   33.8210   34.7960   14.2470 O   0  0  0  0  0  0  0  0  0  0  0  0
   32.5410   36.5800   14.7360 O   0  0  0  0  0  0  0  0  0  0  0  0
   33.0920   37.2980   14.2830 H   0  0  0  0  0  0  0  0  0  0  0  0
   30.0190   31.4960   15.0550 O   0  0  0  0  0  0  0  0  0  0  0  0
   30.3160   30.5650   15.0700 H   0  0  0  0  0  0  0  0  0  0  0  0
   30.7140   33.8910   17.6850 N   0  0  0  0  0  0  0  0  0  0  0  0
   30.9070   33.2600   18.9440 C   0  0  0  0  0  0  0  0  0  0  0  0
   31.1720   34.8160   17.5420 H   0  0  0  0  0  0  0  0  0  0  0  0
   31.7210   33.8700   20.0280 C   0  0  0  0  0  0  0  0  0  0  0  0
   30.3840   32.1390   19.1910 O   0  0  0  0  0  0  0  0  0  0  0  0
   27.4040   33.1620   15.4390 O   0  0  0  0  0  0  0  0  0  0  0  0
   26.6920   33.8090   15.7280 H   0  0  0  0  0  0  0  0  0  0  0  0
   28.2990   36.3160   14.2210 O   0  0  0  0  0  0  0  0  0  0  0  0
   27.8620   37.0290   13.7130 H   0  0  0  0  0  0  0  0  0  0  0  0
   25.1280   35.2070   14.0160 N   0  0  0  0  0  0  0  0  0  0  0  0
   24.7980   36.2120   13.0670 C   0  0  0  0  0  0  0  0  0  0  0  0
   24.5030   34.3680   14.0350 H   0  0  0  0  0  0  0  0  0  0  0  0
   25.4710   37.2440   12.9600 O   0  0  0  0  0  0  0  0  0  0  0  0
   23.7020   36.0760   12.2220 O   0  0  0  0  0  0  0  0  0  0  0  0
   23.7390   35.1350   11.1600 C   0  0  0  0  0  0  0  0  0  0  0  0
   24.2430   35.8410    9.9610 C   0  0  0  0  0  0  0  0  0  0  0  0
   25.4690   35.6820    9.3540 C   0  0  0  0  0  0  0  0  0  0  0  0
   23.5700   36.7740    9.2580 N   0  0  0  0  0  0  0  0  0  0  0  0
   25.4820   36.5260    8.3100 N   0  0  0  0  0  0  0  0  0  0  0  0
   24.3360   37.1740    8.2640 N   0  0  0  0  0  0  0  0  0  0  0  0
   26.5690   36.6820    7.4060 C   0  0  0  0  0  0  0  0  0  0  0  0
   27.3540   35.5860    7.0950 C   0  0  0  0  0  0  0  0  0  0  0  0
   26.8450   37.9140    6.8410 C   0  0  0  0  0  0  0  0  0  0  0  0
   28.4030   35.7730    6.2130 C   0  0  0  0  0  0  0  0  0  0  0  0
   27.8900   38.0810    5.9670 C   0  0  0  0  0  0  0  0  0  0  0  0
   28.6750   36.9940    5.6540 C   0  0  0  0  0  0  0  0  0  0  0  0
   29.8670   25.5550   16.9770 C   0  0  0  0  0  0  0  0  0  0  0  0
   28.3450   25.7220   17.0260 C   0  0  0  0  0  0  0  0  0  0  0  0
   27.6020   24.4000   16.9160 C   0  0  0  0  0  0  0  0  0  0  0  0
   26.1840   24.5040   17.4050 C   0  0  0  0  0  0  0  0  0  0  0  0
   25.8630   23.3080   18.2960 C   0  0  0  0  0  0  0  0  0  0  0  0
   25.4850   23.7610   19.6550 N   0  0  0  0  0  0  0  0  0  0  0  0
  2  3  1  0  0  0  0
  2  1  1  1  0  0  0
  3 23  1  1  0  0  0
  4  3  1  6  0  0  0
  4  9  1  0  0  0  0
  5 10  1  6  0  0  0
  5  6  1  0  0  0  0
  5  7  1  0  0  0  0
  6  8  1  0  0  0  0
  7  4  1  0  0  0  0
  8 16  1  6  0  0  0
  8  9  1  0  0  0  0
  9 18  1  1  0  0  0
 11 10  1  0  0  0  0
 12  5  1  0  0  0  0
 12 14  1  0  0  0  0
 13 12  2  0  0  0  0
 15 14  1  0  0  0  0
 16 17  1  0  0  0  0
 18 19  1  0  0  0  0
 19 22  2  0  0  0  0
 19 21  1  0  0  0  0
 20 18  1  0  0  0  0
 23 24  1  0  0  0  0
 25  2  1  0  0  0  0
 26 25  1  0  0  0  0
 27 29  1  0  0  0  0
 27  1  1  0  0  0  0
 28 27  1  0  0  0  0
 30 28  2  0  0  0  0
 31 28  1  0  0  0  0
 32 31  1  0  0  0  0
 33 32  1  0  0  0  0
 34 33  2  0  0  0  0
 35 33  1  0  0  0  0
 36 34  1  0  0  0  0
 37 36  1  0  0  0  0
 37 35  2  0  0  0  0
 38 36  1  0  0  0  0
 39 38  1  0  0  0  0
 40 38  2  0  0  0  0
 41 39  2  0  0  0  0
 42 40  1  0  0  0  0
 43 42  2  0  0  0  0
 43 41  1  0  0  0  0
 44 45  1  0  0  0  0
 46 45  1  0  0  0  0
 46 47  1  0  0  0  0
 47 48  1  0  0  0  0
 48 49  1  0  0  0  0
M  END
>  <REMARK>
 VINA RESULT:    -5.377      5.124     10.657
 INTER + INTRA:         -13.791
 INTER:                  -9.144
 INTRA:                  -4.647
 UNBOUND:                -4.485
 SMILES CC(=O)N[C@@H]1[C@@H](O)C[C@](O)(C(=O)O)O[C@H]1C(O)[C@H](O)CNC(=O)OCc1cn(-c2ccccc2)nn1
 SMILES IDX 20 1 18 2 16 3 15 4 9 5 8 6 14 7 6 8 5 9 10 10 11 12 12 13
 SMILES IDX 13 14 7 16 4 18 2 19 1 21 3 22 17 23 19 25 21 27 22 28 23 30
 SMILES IDX 24 31 25 32 26 33 27 34 36 35 28 36 35 37 29 38 30 39 34 40
 SMILES IDX 31 41 33 42 32 43
 H PARENT 10 11 13 15 7 17 4 20 17 24 19 26 21 29
 Flexibility Score: inf
  4 active torsions:
  status: ('A' for Active; 'I' for Inactive)
    1  A    between atoms: CA   and  CB  
    2  A    between atoms: CB   and  CG  
    3  A    between atoms: CG   and  CD  
    4  A    between atoms: CD   and  CE  

>  <TORSDO>
F 15

>  <BEGIN_>
RES LYS A 131

$$$$
ligand_3_pose_13_2HRL.pdbqt
 OpenBabel07062320523D

  6  5  0  0  0  0  0  0  0  0999 V2000
   33.1930   34.6630    9.2900 C   0  0  0  0  0  0  0  0  0  0  0  0
   32.0600   35.3600   10.0340 C   0  0  0  0  0  0  0  0  0  0  0  0
   30.7610   35.3830    9.2700 C   0  0  0  0  0  0  0  0  0  0  0  0
   30.2360   33.9700    9.0620 C   0  0  0  0  0  0  0  0  0  0  0  0
   28.7990   33.8620    9.5340 C   0  0  0  0  0  0  0  0  0  0  0  0
   28.6140   34.5360   10.8490 N   0  0  0  0  0  0  0  0  0  0  0  0
  1  2  1  0  0  0  0
  3  2  1  0  0  0  0
  4  3  1  0  0  0  0
  4  5  1  0  0  0  0
  5  6  1  0  0  0  0
M  END
>  <EGIN_R>
ES LYS A 135

>  <REMARK>
  4 active torsions:
  status: ('A' for Active; 'I' for Inactive)
    5  A    between atoms: CA   and  CB  
    6  A    between atoms: CB   and  CG  
    7  A    between atoms: CG   and  CD  
    8  A    between atoms: CD   and  CE  

$$$$
