ligand_74_pose_19_2HRL.pdbqt
 OpenBabel07062320523D

 54 54  0  0  1  0  0  0  0  0999 V2000
   28.7220   32.4110   19.8650 O   0  0  0  0  0  0  0  0  0  0  0  0
   28.1390   31.2290   20.3540 C   0  0  0  0  0  0  0  0  0  0  0  0
   28.6750   29.9580   20.0350 N   0  0  0  0  0  0  0  0  0  0  0  0
   29.5410   29.9590   19.4100 H   0  0  0  0  0  0  0  0  0  0  0  0
   27.1240   31.3360   21.0830 O   0  0  0  0  0  0  0  0  0  0  0  0
   28.1140   28.7120   20.5060 C   0  0  0  0  0  0  0  0  0  0  0  0
   27.7110   27.8750   19.3420 C   0  0  2  0  0  0  0  0  0  0  0  0
   26.2130   27.6370   19.2500 C   0  0  2  0  0  0  0  0  0  0  0  0
   25.6440   28.1760   17.9760 C   0  0  2  0  0  0  0  0  0  0  0  0
   25.3480   30.4530   17.6270 C   0  0  2  0  0  0  0  0  0  0  0  0
   24.0680   30.2790   16.8450 C   0  0  0  0  0  0  0  0  0  0  0  0
   26.1820   29.3500   17.5370 O   0  0  0  0  0  0  0  0  0  0  0  0
   23.7040   28.8190   16.6800 C   0  0  1  0  0  0  0  0  0  0  0  0
   24.1180   28.1530   17.9990 C   0  0  1  0  0  0  0  0  0  0  0  0
   25.0790   30.7990   18.9540 O   0  0  0  0  0  0  0  0  0  0  0  0
   25.8210   31.2550   19.3940 H   0  0  0  0  0  0  0  0  0  0  0  0
   26.0790   31.5990   17.0230 C   0  0  0  0  0  0  0  0  0  0  0  0
   25.4160   32.5040   16.4310 O   0  0  0  0  0  0  0  0  0  0  0  0
   27.4500   31.7390   17.0700 O   0  0  0  0  0  0  0  0  0  0  0  0
   27.9800   31.2390   17.8000 H   0  0  0  0  0  0  0  0  0  0  0  0
   22.3780   28.6180   16.3890 O   0  0  0  0  0  0  0  0  0  0  0  0
   22.0740   29.4170   15.8580 H   0  0  0  0  0  0  0  0  0  0  0  0
   23.6740   26.7830   18.0440 N   0  0  0  0  0  0  0  0  0  0  0  0
   22.4780   26.4260   18.7410 C   0  0  0  0  0  0  0  0  0  0  0  0
   24.1880   25.9930   17.5810 H   0  0  0  0  0  0  0  0  0  0  0  0
   21.9950   25.0340   18.8060 C   0  0  0  0  0  0  0  0  0  0  0  0
   21.8120   27.3210   19.3190 O   0  0  0  0  0  0  0  0  0  0  0  0
   25.5770   28.0740   20.3890 O   0  0  0  0  0  0  0  0  0  0  0  0
   24.7670   27.5410   20.5270 H   0  0  0  0  0  0  0  0  0  0  0  0
   28.3190   26.6050   19.4790 O   0  0  0  0  0  0  0  0  0  0  0  0
   28.1150   26.2080   20.3560 H   0  0  0  0  0  0  0  0  0  0  0  0
   30.1160   32.4210   19.6850 C   0  0  0  0  0  0  0  0  0  0  0  0
   30.4990   32.4070   18.2620 C   0  0  0  0  0  0  0  0  0  0  0  0
   31.1030   33.3880   17.4900 C   0  0  0  0  0  0  0  0  0  0  0  0
   30.3180   31.3760   17.4270 N   0  0  0  0  0  0  0  0  0  0  0  0
   31.2630   32.9250   16.2390 N   0  0  0  0  0  0  0  0  0  0  0  0
   30.7800   31.7090   16.2260 N   0  0  0  0  0  0  0  0  0  0  0  0
   31.8770   33.6920   15.1200 C   0  0  0  0  0  0  0  0  0  0  0  0
   30.9540   34.7780   14.6910 C   0  0  2  0  0  0  0  0  0  0  0  0
   29.9940   34.1960   13.6690 C   0  0  0  0  0  0  0  0  0  0  0  0
   28.5990   34.4030   14.1340 C   0  0  0  0  0  0  0  0  0  0  0  0
   28.0690   33.6170   14.9390 O   0  0  0  0  0  0  0  0  0  0  0  0
   27.9120   35.5110   13.6300 O   0  0  0  0  0  0  0  0  0  0  0  0
   27.1140   35.8620   14.1220 H   0  0  0  0  0  0  0  0  0  0  0  0
   31.6460   36.0030   14.2570 C   0  0  0  0  0  0  0  0  0  0  0  0
   31.6900   36.3100   12.8090 C   0  0  0  0  0  0  0  0  0  0  0  0
   31.4340   37.8410   12.7020 C   0  0  0  0  0  0  0  0  0  0  0  0
   32.9670   36.0360   12.0900 C   0  0  0  0  0  0  0  0  0  0  0  0
   29.8670   25.5550   16.9770 C   0  0  0  0  0  0  0  0  0  0  0  0
   28.3450   25.7220   17.0260 C   0  0  0  0  0  0  0  0  0  0  0  0
   27.6010   24.4030   16.8870 C   0  0  0  0  0  0  0  0  0  0  0  0
   26.1730   24.5070   17.3440 C   0  0  0  0  0  0  0  0  0  0  0  0
   25.9090   23.4700   18.4310 C   0  0  0  0  0  0  0  0  0  0  0  0
   25.4710   24.1310   19.6830 N   0  0  0  0  0  0  0  0  0  0  0  0
  1  2  1  0  0  0  0
  2  5  2  0  0  0  0
  3  2  1  0  0  0  0
  3  6  1  0  0  0  0
  4  3  1  0  0  0  0
  7 30  1  0  0  0  0
  7  6  1  1  0  0  0
  8  7  1  0  0  0  0
  8 28  1  1  0  0  0
  9 14  1  0  0  0  0
  9  8  1  1  0  0  0
 10 17  1  6  0  0  0
 10 15  1  0  0  0  0
 11 10  1  0  0  0  0
 12 10  1  0  0  0  0
 12  9  1  0  0  0  0
 13 21  1  1  0  0  0
 13 11  1  0  0  0  0
 13 14  1  0  0  0  0
 14 23  1  6  0  0  0
 15 16  1  0  0  0  0
 17 19  1  0  0  0  0
 18 17  2  0  0  0  0
 19 20  1  0  0  0  0
 22 21  1  0  0  0  0
 23 24  1  0  0  0  0
 24 26  1  0  0  0  0
 24 27  2  0  0  0  0
 25 23  1  0  0  0  0
 28 29  1  0  0  0  0
 30 31  1  0  0  0  0
 32  1  1  0  0  0  0
 33 32  1  0  0  0  0
 34 33  2  0  0  0  0
 35 33  1  0  0  0  0
 36 34  1  0  0  0  0
 37 36  1  0  0  0  0
 37 35  2  0  0  0  0
 38 36  1  0  0  0  0
 39 40  1  6  0  0  0
 39 38  1  0  0  0  0
 40 41  1  0  0  0  0
 41 42  2  0  0  0  0
 43 44  1  0  0  0  0
 43 41  1  0  0  0  0
 45 39  1  0  0  0  0
 46 45  1  0  0  0  0
 47 46  1  0  0  0  0
 48 46  1  0  0  0  0
 49 50  1  0  0  0  0
 51 50  1  0  0  0  0
 51 52  1  0  0  0  0
 52 53  1  0  0  0  0
 53 54  1  0  0  0  0
M  END
>  <REMARK>
 VINA RESULT:    -3.826      2.718      5.304
 INTER + INTRA:         -14.970
 INTER:                  -7.852
 INTRA:                  -7.118
 UNBOUND:                -7.118
 SMILES CC(=O)N[C@@H]1[C@@H](O)C[C@](O)(C(=O)O)O[C@H]1C(O)[C@H](O)CNC(=O)OCc1cn(C[C@H](CC(=O)O)CC(C)C)nn1
 SMILES IDX 24 1 22 2 21 3 23 5 20 6 18 7 16 8 15 9 9 10 8 11 14 12 6 13
 SMILES IDX 5 14 10 15 11 17 12 18 13 19 7 21 4 23 2 24 1 26 3 27 17 28
 SMILES IDX 19 30 25 32 26 33 27 34 40 35 28 36 39 37 29 38 30 39 31 40
 SMILES IDX 32 41 33 42 34 43 35 45 36 46 37 47 38 48
 H PARENT 21 4 10 16 13 20 7 22 4 25 17 29 19 31 34 44
 Flexibility Score: inf
  4 active torsions:
  status: ('A' for Active; 'I' for Inactive)
    1  A    between atoms: CA   and  CB  
    2  A    between atoms: CB   and  CG  
    3  A    between atoms: CG   and  CD  
    4  A    between atoms: CD   and  CE  

>  <TORSDO>
F 21

>  <BEGIN_>
RES LYS A 131

$$$$
ligand_74_pose_19_2HRL.pdbqt
 OpenBabel07062320523D

  6  5  0  0  0  0  0  0  0  0999 V2000
   33.1930   34.6630    9.2900 C   0  0  0  0  0  0  0  0  0  0  0  0
   32.0600   35.3600   10.0340 C   0  0  0  0  0  0  0  0  0  0  0  0
   30.8130   35.5340    9.2060 C   0  0  0  0  0  0  0  0  0  0  0  0
   30.0500   34.2220    9.1020 C   0  0  0  0  0  0  0  0  0  0  0  0
   28.7430   34.4230    8.3600 C   0  0  0  0  0  0  0  0  0  0  0  0
   27.5800   34.0420    9.2090 N   0  0  0  0  0  0  0  0  0  0  0  0
  1  2  1  0  0  0  0
  3  2  1  0  0  0  0
  4  3  1  0  0  0  0
  5  4  1  0  0  0  0
  5  6  1  0  0  0  0
M  END
>  <EGIN_R>
ES LYS A 135

>  <REMARK>
  4 active torsions:
  status: ('A' for Active; 'I' for Inactive)
    5  A    between atoms: CA   and  CB  
    6  A    between atoms: CB   and  CG  
    7  A    between atoms: CG   and  CD  
    8  A    between atoms: CD   and  CE  

$$$$
