ligand_50_pose_7_2HRL.pdbqt
 OpenBabel07062320523D

 50 50  0  0  1  0  0  0  0  0999 V2000
   25.6200   29.2960   19.6050 N   0  0  0  0  0  0  0  0  0  0  0  0
   24.7510   29.1830   18.4910 C   0  0  0  0  0  0  0  0  0  0  0  0
   23.8870   28.2910   18.4340 O   0  0  0  0  0  0  0  0  0  0  0  0
   26.3270   30.0910   19.5590 H   0  0  0  0  0  0  0  0  0  0  0  0
   25.5440   28.3980   20.7070 C   0  0  0  0  0  0  0  0  0  0  0  0
   26.8880   28.0770   21.3240 C   0  0  2  0  0  0  0  0  0  0  0  0
   27.9360   28.7280   20.4300 C   0  0  1  0  0  0  0  0  0  0  0  0
   29.2140   29.0020   21.2310 C   0  0  2  0  0  0  0  0  0  0  0  0
   30.6570   30.5560   20.2820 C   0  0  2  0  0  0  0  0  0  0  0  0
   31.8320   29.9960   21.0590 C   0  0  0  0  0  0  0  0  0  0  0  0
   29.5340   30.3160   21.0360 O   0  0  0  0  0  0  0  0  0  0  0  0
   31.6780   28.5150   21.0960 C   0  0  1  0  0  0  0  0  0  0  0  0
   30.2770   28.0190   20.8530 C   0  0  1  0  0  0  0  0  0  0  0  0
   30.6500   29.9120   19.0460 O   0  0  0  0  0  0  0  0  0  0  0  0
   30.6660   30.5410   18.2900 H   0  0  0  0  0  0  0  0  0  0  0  0
   30.7900   32.0220   20.0810 C   0  0  0  0  0  0  0  0  0  0  0  0
   31.7550   32.6170   20.6220 O   0  0  0  0  0  0  0  0  0  0  0  0
   29.8690   32.6980   19.3160 O   0  0  0  0  0  0  0  0  0  0  0  0
   29.2740   32.2000   18.6620 H   0  0  0  0  0  0  0  0  0  0  0  0
   32.4890   27.9750   20.0910 O   0  0  0  0  0  0  0  0  0  0  0  0
   31.9380   27.7290   19.3250 H   0  0  0  0  0  0  0  0  0  0  0  0
   30.1370   26.7990   21.6190 N   0  0  0  0  0  0  0  0  0  0  0  0
   30.0520   26.8730   23.0340 C   0  0  0  0  0  0  0  0  0  0  0  0
   30.0950   25.8530   21.1740 H   0  0  0  0  0  0  0  0  0  0  0  0
   29.9080   25.6380   23.8810 C   0  0  0  0  0  0  0  0  0  0  0  0
   30.0930   27.9590   23.6660 O   0  0  0  0  0  0  0  0  0  0  0  0
   28.1590   27.9310   19.3340 O   0  0  0  0  0  0  0  0  0  0  0  0
   28.0750   26.9630   19.5600 H   0  0  0  0  0  0  0  0  0  0  0  0
   27.0770   26.6970   21.3910 O   0  0  0  0  0  0  0  0  0  0  0  0
   26.5620   26.2970   20.6640 H   0  0  0  0  0  0  0  0  0  0  0  0
   24.8390   30.0780   17.4140 O   0  0  0  0  0  0  0  0  0  0  0  0
   25.6680   29.7410   16.3390 C   0  0  0  0  0  0  0  0  0  0  0  0
   26.9820   30.4270   16.4140 C   0  0  0  0  0  0  0  0  0  0  0  0
   27.3700   31.5370   15.7220 C   0  0  0  0  0  0  0  0  0  0  0  0
   28.0200   30.0710   17.1760 N   0  0  0  0  0  0  0  0  0  0  0  0
   28.6460   31.8110   16.1020 N   0  0  0  0  0  0  0  0  0  0  0  0
   29.0300   30.9060   16.9910 N   0  0  0  0  0  0  0  0  0  0  0  0
   29.4430   32.9280   15.5970 C   0  0  0  0  0  0  0  0  0  0  0  0
   30.8820   32.6150   15.9540 C   0  0  1  0  0  0  0  0  0  0  0  0
   31.4430   31.8250   14.9580 O   0  0  0  0  0  0  0  0  0  0  0  0
   31.8760   31.0440   15.3950 H   0  0  0  0  0  0  0  0  0  0  0  0
   31.6840   33.9130   16.0940 C   0  0  0  0  0  0  0  0  0  0  0  0
   30.8630   34.9970   15.7770 O   0  0  0  0  0  0  0  0  0  0  0  0
   30.3740   35.2920   16.6020 H   0  0  0  0  0  0  0  0  0  0  0  0
   29.8670   25.5550   16.9770 C   0  0  0  0  0  0  0  0  0  0  0  0
   28.3450   25.7220   17.0260 C   0  0  0  0  0  0  0  0  0  0  0  0
   27.5990   24.4780   16.5690 C   0  0  0  0  0  0  0  0  0  0  0  0
   26.3180   24.2740   17.3280 C   0  0  0  0  0  0  0  0  0  0  0  0
   26.0980   25.4470   18.2790 C   0  0  0  0  0  0  0  0  0  0  0  0
   25.0140   25.1380   19.2420 N   0  0  0  0  0  0  0  0  0  0  0  0
  1  5  1  0  0  0  0
  2  1  1  0  0  0  0
  3  2  2  0  0  0  0
  4  1  1  0  0  0  0
  6  5  1  6  0  0  0
  6 29  1  0  0  0  0
  7 27  1  6  0  0  0
  7  6  1  0  0  0  0
  8  7  1  6  0  0  0
  9 14  1  6  0  0  0
  9 11  1  0  0  0  0
  9 10  1  0  0  0  0
 10 12  1  0  0  0  0
 11  8  1  0  0  0  0
 12 20  1  6  0  0  0
 13 12  1  0  0  0  0
 13  8  1  0  0  0  0
 13 22  1  1  0  0  0
 15 14  1  0  0  0  0
 16  9  1  0  0  0  0
 16 17  2  0  0  0  0
 18 16  1  0  0  0  0
 19 18  1  0  0  0  0
 21 20  1  0  0  0  0
 22 23  1  0  0  0  0
 23 26  2  0  0  0  0
 23 25  1  0  0  0  0
 24 22  1  0  0  0  0
 27 28  1  0  0  0  0
 30 29  1  0  0  0  0
 31  2  1  0  0  0  0
 32 33  1  0  0  0  0
 32 31  1  0  0  0  0
 33 35  1  0  0  0  0
 34 36  1  0  0  0  0
 34 33  2  0  0  0  0
 36 37  1  0  0  0  0
 37 35  2  0  0  0  0
 38 36  1  0  0  0  0
 39 38  1  6  0  0  0
 39 42  1  0  0  0  0
 40 41  1  0  0  0  0
 40 39  1  0  0  0  0
 43 42  1  0  0  0  0
 43 44  1  0  0  0  0
 45 46  1  0  0  0  0
 47 46  1  0  0  0  0
 47 48  1  0  0  0  0
 48 49  1  0  0  0  0
 49 50  1  0  0  0  0
M  END
>  <REMARK>
 VINA RESULT:    -4.717      1.779      2.188
 INTER + INTRA:         -14.467
 INTER:                  -8.346
 INTRA:                  -6.121
 UNBOUND:                -5.477
 SMILES CC(=O)N[C@@H]1[C@@H](O)C[C@](O)(C(=O)O)O[C@H]1C(O)[C@H](O)CNC(=O)OCc1cn(CC(O)CO)nn1
 SMILES IDX 21 1 22 2 23 3 20 5 18 6 16 7 15 8 9 9 8 10 14 11 6 12 5 13
 SMILES IDX 10 14 11 16 12 17 13 18 7 20 4 22 2 23 1 25 3 26 17 27 19 29
 SMILES IDX 24 31 25 32 26 33 27 34 35 35 28 36 34 37 29 38 30 39 31 40
 SMILES IDX 32 42 33 43
 H PARENT 21 4 10 15 13 19 7 21 4 24 17 28 19 30 31 41 33 44
 Flexibility Score: inf
  4 active torsions:
  status: ('A' for Active; 'I' for Inactive)
    1  A    between atoms: CA   and  CB  
    2  A    between atoms: CB   and  CG  
    3  A    between atoms: CG   and  CD  
    4  A    between atoms: CD   and  CE  

>  <TORSDO>
F 19

>  <BEGIN_>
RES LYS A 131

$$$$
ligand_50_pose_7_2HRL.pdbqt
 OpenBabel07062320523D

  6  5  0  0  0  0  0  0  0  0999 V2000
   33.1930   34.6630    9.2900 C   0  0  0  0  0  0  0  0  0  0  0  0
   32.0600   35.3600   10.0340 C   0  0  0  0  0  0  0  0  0  0  0  0
   30.7980   35.4950    9.2210 C   0  0  0  0  0  0  0  0  0  0  0  0
   30.1040   34.1490    9.0810 C   0  0  0  0  0  0  0  0  0  0  0  0
   28.6440   34.3390    8.7150 C   0  0  0  0  0  0  0  0  0  0  0  0
   27.7550   33.6000    9.6530 N   0  0  0  0  0  0  0  0  0  0  0  0
  1  2  1  0  0  0  0
  3  2  1  0  0  0  0
  4  3  1  0  0  0  0
  5  4  1  0  0  0  0
  5  6  1  0  0  0  0
M  END
>  <EGIN_R>
ES LYS A 135

>  <REMARK>
  4 active torsions:
  status: ('A' for Active; 'I' for Inactive)
    5  A    between atoms: CA   and  CB  
    6  A    between atoms: CB   and  CG  
    7  A    between atoms: CG   and  CD  
    8  A    between atoms: CD   and  CE  

$$$$
