ligand_48_pose_6_2HRL.pdbqt
 OpenBabel07062320523D

 49 50  0  0  1  0  0  0  0  0999 V2000
   26.0760   33.3400   16.5140 C   0  0  0  0  0  0  0  0  0  0  0  0
   27.5610   33.1980   16.2160 C   0  0  2  0  0  0  0  0  0  0  0  0
   28.2420   34.4060   16.7820 C   0  0  1  0  0  0  0  0  0  0  0  0
   29.6850   34.1940   17.1870 C   0  0  2  0  0  0  0  0  0  0  0  0
   31.1170   34.8000   15.4190 C   0  0  2  0  0  0  0  0  0  0  0  0
   31.8920   33.5000   15.5570 C   0  0  0  0  0  0  0  0  0  0  0  0
   30.5350   35.0950   16.6060 O   0  0  0  0  0  0  0  0  0  0  0  0
   30.9950   32.3770   16.0080 C   0  0  1  0  0  0  0  0  0  0  0  0
   30.1370   32.7760   17.1910 C   0  0  1  0  0  0  0  0  0  0  0  0
   30.2590   34.7500   14.3220 O   0  0  0  0  0  0  0  0  0  0  0  0
   30.5510   35.4630   13.6720 H   0  0  0  0  0  0  0  0  0  0  0  0
   32.1460   35.8420   15.1480 C   0  0  0  0  0  0  0  0  0  0  0  0
   33.2330   35.5240   14.6160 O   0  0  0  0  0  0  0  0  0  0  0  0
   31.9000   37.1430   15.4800 O   0  0  0  0  0  0  0  0  0  0  0  0
   31.4280   37.8110   14.8840 H   0  0  0  0  0  0  0  0  0  0  0  0
   30.2310   31.8940   14.9540 O   0  0  0  0  0  0  0  0  0  0  0  0
   30.4980   30.9670   14.7390 H   0  0  0  0  0  0  0  0  0  0  0  0
   30.8510   32.4500   18.4270 N   0  0  0  0  0  0  0  0  0  0  0  0
   30.3710   31.3860   19.2200 C   0  0  0  0  0  0  0  0  0  0  0  0
   31.6920   32.9790   18.7280 H   0  0  0  0  0  0  0  0  0  0  0  0
   31.0320   30.9780   20.4980 C   0  0  0  0  0  0  0  0  0  0  0  0
   29.3470   30.7030   18.9010 O   0  0  0  0  0  0  0  0  0  0  0  0
   27.9940   35.5530   16.0750 O   0  0  0  0  0  0  0  0  0  0  0  0
   28.7890   36.1740   16.0310 H   0  0  0  0  0  0  0  0  0  0  0  0
   27.7040   33.0170   14.8610 O   0  0  0  0  0  0  0  0  0  0  0  0
   27.4190   32.1210   14.6220 H   0  0  0  0  0  0  0  0  0  0  0  0
   25.4100   33.7560   15.3020 N   0  0  0  0  0  0  0  0  0  0  0  0
   24.8660   35.0430   15.0690 C   0  0  0  0  0  0  0  0  0  0  0  0
   25.2960   33.0750   14.4890 H   0  0  0  0  0  0  0  0  0  0  0  0
   24.9470   35.9170   15.9650 O   0  0  0  0  0  0  0  0  0  0  0  0
   24.2410   35.3610   13.8670 O   0  0  0  0  0  0  0  0  0  0  0  0
   24.8540   36.2630   12.9800 C   0  0  0  0  0  0  0  0  0  0  0  0
   26.1120   35.6470   12.4850 C   0  0  0  0  0  0  0  0  0  0  0  0
   26.3610   35.2100   11.1770 C   0  0  0  0  0  0  0  0  0  0  0  0
   27.2570   35.3710   13.1380 N   0  0  0  0  0  0  0  0  0  0  0  0
   27.6050   34.7060   11.1020 N   0  0  0  0  0  0  0  0  0  0  0  0
   28.1250   34.8160   12.3110 N   0  0  0  0  0  0  0  0  0  0  0  0
   28.2490   34.1480    9.9210 C   0  0  0  0  0  0  0  0  0  0  0  0
   27.3480   34.3510    8.7220 C   0  0  0  0  0  0  0  0  0  0  0  0
   29.5520   34.8670    9.6560 C   0  0  0  0  0  0  0  0  0  0  0  0
   27.8470   35.4750    7.8340 C   0  0  0  0  0  0  0  0  0  0  0  0
   30.0390   34.4060    8.2930 C   0  0  0  0  0  0  0  0  0  0  0  0
   29.1890   35.1150    7.2570 C   0  0  0  0  0  0  0  0  0  0  0  0
   29.8670   25.5550   16.9770 C   0  0  0  0  0  0  0  0  0  0  0  0
   28.3450   25.7220   17.0260 C   0  0  0  0  0  0  0  0  0  0  0  0
   27.6000   24.4160   16.7970 C   0  0  0  0  0  0  0  0  0  0  0  0
   26.9920   23.8810   18.0640 C   0  0  0  0  0  0  0  0  0  0  0  0
   25.5330   23.5140   17.8140 C   0  0  0  0  0  0  0  0  0  0  0  0
   24.9310   24.4320   16.8180 N   0  0  0  0  0  0  0  0  0  0  0  0
  2  1  1  6  0  0  0
  2  3  1  0  0  0  0
  3 23  1  6  0  0  0
  4  3  1  6  0  0  0
  4  9  1  0  0  0  0
  5 10  1  6  0  0  0
  5  6  1  0  0  0  0
  5  7  1  0  0  0  0
  6  8  1  0  0  0  0
  7  4  1  0  0  0  0
  8 16  1  6  0  0  0
  8  9  1  0  0  0  0
  9 18  1  1  0  0  0
 11 10  1  0  0  0  0
 12  5  1  0  0  0  0
 12 14  1  0  0  0  0
 13 12  2  0  0  0  0
 15 14  1  0  0  0  0
 17 16  1  0  0  0  0
 18 20  1  0  0  0  0
 18 19  1  0  0  0  0
 19 21  1  0  0  0  0
 22 19  2  0  0  0  0
 24 23  1  0  0  0  0
 25  2  1  0  0  0  0
 26 25  1  0  0  0  0
 27  1  1  0  0  0  0
 28 27  1  0  0  0  0
 28 30  2  0  0  0  0
 29 27  1  0  0  0  0
 31 28  1  0  0  0  0
 32 31  1  0  0  0  0
 33 32  1  0  0  0  0
 33 35  1  0  0  0  0
 34 33  2  0  0  0  0
 36 34  1  0  0  0  0
 36 37  1  0  0  0  0
 37 35  2  0  0  0  0
 38 36  1  0  0  0  0
 39 38  1  0  0  0  0
 40 38  1  0  0  0  0
 41 39  1  0  0  0  0
 42 40  1  0  0  0  0
 43 41  1  0  0  0  0
 43 42  1  0  0  0  0
 44 45  1  0  0  0  0
 46 45  1  0  0  0  0
 46 47  1  0  0  0  0
 48 47  1  0  0  0  0
 49 48  1  0  0  0  0
M  END
>  <REMARK>
 VINA RESULT:    -4.835      3.705      6.793
 INTER + INTRA:         -14.164
 INTER:                  -8.849
 INTRA:                  -5.315
 UNBOUND:                -5.796
 SMILES CC(=O)N[C@@H]1[C@@H](O)C[C@](O)(C(=O)O)O[C@H]1C(O)[C@H](O)CNC(=O)OCc1cn(C2CCCCC2)nn1
 SMILES IDX 20 1 18 2 16 3 15 4 9 5 8 6 14 7 6 8 5 9 10 10 11 12 12 13
 SMILES IDX 13 14 7 16 4 18 2 19 1 21 3 22 17 23 19 25 21 27 22 28 23 30
 SMILES IDX 24 31 25 32 26 33 27 34 36 35 28 36 35 37 29 38 30 39 34 40
 SMILES IDX 31 41 33 42 32 43
 H PARENT 10 11 13 15 7 17 4 20 17 24 19 26 21 29
 Flexibility Score: inf
  4 active torsions:
  status: ('A' for Active; 'I' for Inactive)
    1  A    between atoms: CA   and  CB  
    2  A    between atoms: CB   and  CG  
    3  A    between atoms: CG   and  CD  
    4  A    between atoms: CD   and  CE  

>  <TORSDO>
F 15

>  <BEGIN_>
RES LYS A 131

$$$$
ligand_48_pose_6_2HRL.pdbqt
 OpenBabel07062320523D

  6  5  0  0  0  0  0  0  0  0999 V2000
   33.1930   34.6630    9.2900 C   0  0  0  0  0  0  0  0  0  0  0  0
   32.0600   35.3600   10.0340 C   0  0  0  0  0  0  0  0  0  0  0  0
   32.4590   35.8780   11.3920 C   0  0  0  0  0  0  0  0  0  0  0  0
   32.2110   37.3750   11.4900 C   0  0  0  0  0  0  0  0  0  0  0  0
   31.4890   37.8770   10.2540 C   0  0  0  0  0  0  0  0  0  0  0  0
   31.0960   39.3050   10.4050 N   0  0  0  0  0  0  0  0  0  0  0  0
  1  2  1  0  0  0  0
  2  3  1  0  0  0  0
  3  4  1  0  0  0  0
  5  6  1  0  0  0  0
  5  4  1  0  0  0  0
M  END
>  <EGIN_R>
ES LYS A 135

>  <REMARK>
  4 active torsions:
  status: ('A' for Active; 'I' for Inactive)
    5  A    between atoms: CA   and  CB  
    6  A    between atoms: CB   and  CG  
    7  A    between atoms: CG   and  CD  
    8  A    between atoms: CD   and  CE  

$$$$
