ligand_53_pose_5_2HRL.pdbqt
 OpenBabel07062320523D

 48 48  0  0  1  0  0  0  0  0999 V2000
   25.4960   28.2200   17.9200 N   0  0  0  0  0  0  0  0  0  0  0  0
   24.7300   29.3920   17.7750 C   0  0  0  0  0  0  0  0  0  0  0  0
   24.3240   30.0360   18.7420 O   0  0  0  0  0  0  0  0  0  0  0  0
   25.7920   27.7620   17.0050 H   0  0  0  0  0  0  0  0  0  0  0  0
   25.9010   27.6030   19.1560 C   0  0  0  0  0  0  0  0  0  0  0  0
   27.3750   27.5550   19.4080 C   0  0  2  0  0  0  0  0  0  0  0  0
   27.7380   27.2390   20.8100 C   0  0  1  0  0  0  0  0  0  0  0  0
   29.0450   27.8140   21.2850 C   0  0  2  0  0  0  0  0  0  0  0  0
   31.2610   28.1270   20.5600 C   0  0  2  0  0  0  0  0  0  0  0  0
   31.8010   27.9210   21.9370 C   0  0  0  0  0  0  0  0  0  0  0  0
   30.0200   27.6660   20.2880 O   0  0  0  0  0  0  0  0  0  0  0  0
   30.7350   28.1220   22.9670 C   0  0  1  0  0  0  0  0  0  0  0  0
   29.5830   27.1910   22.5450 C   0  0  1  0  0  0  0  0  0  0  0  0
   32.2160   27.5490   19.6710 O   0  0  0  0  0  0  0  0  0  0  0  0
   32.3240   28.2170   18.9410 H   0  0  0  0  0  0  0  0  0  0  0  0
   31.3260   29.5870   20.2510 C   0  0  0  0  0  0  0  0  0  0  0  0
   31.9520   30.4270   20.9300 O   0  0  0  0  0  0  0  0  0  0  0  0
   30.6510   30.0530   19.1430 O   0  0  0  0  0  0  0  0  0  0  0  0
   29.6570   30.2700   19.1500 H   0  0  0  0  0  0  0  0  0  0  0  0
   31.1630   27.8060   24.2520 O   0  0  0  0  0  0  0  0  0  0  0  0
   30.3710   27.4650   24.7450 H   0  0  0  0  0  0  0  0  0  0  0  0
   28.6770   27.0550   23.6390 N   0  0  0  0  0  0  0  0  0  0  0  0
   28.6740   25.9110   24.4930 C   0  0  0  0  0  0  0  0  0  0  0  0
   27.9970   27.8080   23.8460 H   0  0  0  0  0  0  0  0  0  0  0  0
   27.7500   25.7350   25.6370 C   0  0  0  0  0  0  0  0  0  0  0  0
   29.5070   25.0050   24.2580 O   0  0  0  0  0  0  0  0  0  0  0  0
   26.6830   27.4700   21.6780 O   0  0  0  0  0  0  0  0  0  0  0  0
   26.0270   26.7270   21.6750 H   0  0  0  0  0  0  0  0  0  0  0  0
   27.9320   28.7760   18.9940 O   0  0  0  0  0  0  0  0  0  0  0  0
   28.0900   29.3830   19.7520 H   0  0  0  0  0  0  0  0  0  0  0  0
   24.3990   29.8770   16.5120 O   0  0  0  0  0  0  0  0  0  0  0  0
   25.2790   29.9790   15.4370 C   0  0  0  0  0  0  0  0  0  0  0  0
   26.6300   30.4800   15.7910 C   0  0  0  0  0  0  0  0  0  0  0  0
   27.1140   31.7510   15.8060 C   0  0  0  0  0  0  0  0  0  0  0  0
   27.6760   29.6970   16.1850 N   0  0  0  0  0  0  0  0  0  0  0  0
   28.4010   31.7180   16.1950 N   0  0  0  0  0  0  0  0  0  0  0  0
   28.7260   30.4730   16.4210 N   0  0  0  0  0  0  0  0  0  0  0  0
   29.2630   32.8730   16.3350 C   0  0  0  0  0  0  0  0  0  0  0  0
   30.6770   32.4470   16.3050 C   0  0  0  0  0  0  0  0  0  0  0  0
   31.3880   32.5970   17.3380 O   0  0  0  0  0  0  0  0  0  0  0  0
   31.2180   31.8890   15.1660 O   0  0  0  0  0  0  0  0  0  0  0  0
   31.5730   30.9320   15.2470 H   0  0  0  0  0  0  0  0  0  0  0  0
   29.8670   25.5550   16.9770 C   0  0  0  0  0  0  0  0  0  0  0  0
   28.3450   25.7220   17.0260 C   0  0  0  0  0  0  0  0  0  0  0  0
   27.6010   24.4010   16.8970 C   0  0  0  0  0  0  0  0  0  0  0  0
   26.1500   24.5300   17.2710 C   0  0  0  0  0  0  0  0  0  0  0  0
   25.7760   23.4190   18.2470 C   0  0  0  0  0  0  0  0  0  0  0  0
   25.5190   23.9780   19.5950 N   0  0  0  0  0  0  0  0  0  0  0  0
  1  5  1  0  0  0  0
  2  1  1  0  0  0  0
  2  3  2  0  0  0  0
  4  1  1  0  0  0  0
  6  5  1  1  0  0  0
  6  7  1  0  0  0  0
  7 27  1  1  0  0  0
  8  7  1  6  0  0  0
  8 13  1  0  0  0  0
  9 14  1  6  0  0  0
  9 10  1  0  0  0  0
 10 12  1  0  0  0  0
 11  9  1  0  0  0  0
 11  8  1  0  0  0  0
 12 20  1  1  0  0  0
 13 12  1  0  0  0  0
 13 22  1  1  0  0  0
 15 14  1  0  0  0  0
 16  9  1  0  0  0  0
 16 17  2  0  0  0  0
 18 19  1  0  0  0  0
 18 16  1  0  0  0  0
 20 21  1  0  0  0  0
 22 24  1  0  0  0  0
 22 23  1  0  0  0  0
 23 25  1  0  0  0  0
 26 23  2  0  0  0  0
 28 27  1  0  0  0  0
 29  6  1  0  0  0  0
 29 30  1  0  0  0  0
 31  2  1  0  0  0  0
 32 33  1  0  0  0  0
 32 31  1  0  0  0  0
 33 34  2  0  0  0  0
 33 35  1  0  0  0  0
 34 36  1  0  0  0  0
 35 37  2  0  0  0  0
 36 38  1  0  0  0  0
 36 37  1  0  0  0  0
 39 38  1  0  0  0  0
 39 40  2  0  0  0  0
 41 42  1  0  0  0  0
 41 39  1  0  0  0  0
 43 44  1  0  0  0  0
 45 44  1  0  0  0  0
 45 46  1  0  0  0  0
 46 47  1  0  0  0  0
 47 48  1  0  0  0  0
M  END
>  <REMARK>
 VINA RESULT:    -4.171      3.506      5.783
 INTER + INTRA:         -13.947
 INTER:                  -7.642
 INTRA:                  -6.304
 UNBOUND:                -6.362
 SMILES CC(=O)N[C@@H]1[C@@H](O)C[C@](O)(C(=O)O)O[C@H]1C(O)[C@H](O)CNC(=O)OCc1cn(CC(=O)O)nn1
 SMILES IDX 21 1 22 2 23 3 20 5 18 6 16 7 15 8 9 9 8 10 14 11 6 12 5 13
 SMILES IDX 10 14 11 16 12 17 13 18 7 20 4 22 2 23 1 25 3 26 17 27 19 29
 SMILES IDX 24 31 25 32 26 33 27 34 34 35 28 36 33 37 29 38 30 39 31 40
 SMILES IDX 32 41
 H PARENT 21 4 10 15 13 19 7 21 4 24 17 28 19 30 32 42
 Flexibility Score: inf
  4 active torsions:
  status: ('A' for Active; 'I' for Inactive)
    1  A    between atoms: CA   and  CB  
    2  A    between atoms: CB   and  CG  
    3  A    between atoms: CG   and  CD  
    4  A    between atoms: CD   and  CE  

>  <TORSDO>
F 17

>  <BEGIN_>
RES LYS A 131

$$$$
ligand_53_pose_5_2HRL.pdbqt
 OpenBabel07062320523D

  6  5  0  0  0  0  0  0  0  0999 V2000
   33.1930   34.6630    9.2900 C   0  0  0  0  0  0  0  0  0  0  0  0
   32.0600   35.3600   10.0340 C   0  0  0  0  0  0  0  0  0  0  0  0
   30.7970   35.4900    9.2230 C   0  0  0  0  0  0  0  0  0  0  0  0
   30.1590   34.1270    9.0000 C   0  0  0  0  0  0  0  0  0  0  0  0
   28.6880   34.2760    8.6640 C   0  0  0  0  0  0  0  0  0  0  0  0
   27.8350   33.6020    9.6810 N   0  0  0  0  0  0  0  0  0  0  0  0
  1  2  1  0  0  0  0
  3  2  1  0  0  0  0
  4  3  1  0  0  0  0
  5  4  1  0  0  0  0
  5  6  1  0  0  0  0
M  END
>  <EGIN_R>
ES LYS A 135

>  <REMARK>
  4 active torsions:
  status: ('A' for Active; 'I' for Inactive)
    5  A    between atoms: CA   and  CB  
    6  A    between atoms: CB   and  CG  
    7  A    between atoms: CG   and  CD  
    8  A    between atoms: CD   and  CE  

$$$$
