ligand_57_pose_3_2HRL.pdbqt
 OpenBabel07062320523D

 50 51  0  0  1  0  0  0  0  0999 V2000
   30.5490   31.9440   17.1100 C   0  0  0  0  0  0  0  0  0  0  0  0
   30.9610   32.7750   15.9410 C   0  0  2  0  0  0  0  0  0  0  0  0
   29.7870   33.4600   15.2730 C   0  0  2  0  0  0  0  0  0  0  0  0
   30.2930   34.5470   14.3480 C   0  0  2  0  0  0  0  0  0  0  0  0
   31.8740   36.2510   14.1240 C   0  0  2  0  0  0  0  0  0  0  0  0
   30.8280   37.1860   13.5990 C   0  0  0  0  0  0  0  0  0  0  0  0
   31.4160   35.1620   14.8040 O   0  0  0  0  0  0  0  0  0  0  0  0
   29.6840   36.4380   12.9680 C   0  0  1  0  0  0  0  0  0  0  0  0
   29.1590   35.4670   14.0230 C   0  0  1  0  0  0  0  0  0  0  0  0
   32.7620   37.0160   14.9310 O   0  0  0  0  0  0  0  0  0  0  0  0
   33.7040   36.8020   14.7240 H   0  0  0  0  0  0  0  0  0  0  0  0
   32.6690   35.7510   12.9730 C   0  0  0  0  0  0  0  0  0  0  0  0
   32.7490   36.4370   11.9230 O   0  0  0  0  0  0  0  0  0  0  0  0
   33.3560   34.5470   12.9610 O   0  0  0  0  0  0  0  0  0  0  0  0
   33.6820   34.0910   13.8130 H   0  0  0  0  0  0  0  0  0  0  0  0
   28.6560   37.3000   12.5800 O   0  0  0  0  0  0  0  0  0  0  0  0
   28.1430   37.6430   13.3450 H   0  0  0  0  0  0  0  0  0  0  0  0
   28.0920   34.7220   13.3420 N   0  0  0  0  0  0  0  0  0  0  0  0
   26.7630   34.7160   13.8110 C   0  0  0  0  0  0  0  0  0  0  0  0
   28.3620   34.2020   12.4970 H   0  0  0  0  0  0  0  0  0  0  0  0
   25.6810   33.9480   13.1000 C   0  0  0  0  0  0  0  0  0  0  0  0
   26.4920   35.3730   14.8490 O   0  0  0  0  0  0  0  0  0  0  0  0
   28.9420   33.9410   16.2460 O   0  0  0  0  0  0  0  0  0  0  0  0
   29.4570   34.3490   16.9890 H   0  0  0  0  0  0  0  0  0  0  0  0
   31.5540   31.9190   14.9830 O   0  0  0  0  0  0  0  0  0  0  0  0
   31.2640   30.9790   15.1220 H   0  0  0  0  0  0  0  0  0  0  0  0
   29.8540   30.7720   16.6240 N   0  0  0  0  0  0  0  0  0  0  0  0
   28.4760   30.5040   16.8480 C   0  0  0  0  0  0  0  0  0  0  0  0
   30.3510   30.0230   16.0540 H   0  0  0  0  0  0  0  0  0  0  0  0
   27.8000   31.3150   17.5000 O   0  0  0  0  0  0  0  0  0  0  0  0
   27.8520   29.3630   16.3620 O   0  0  0  0  0  0  0  0  0  0  0  0
   27.0510   28.5640   17.2090 C   0  0  0  0  0  0  0  0  0  0  0  0
   25.6080   28.7960   16.9400 C   0  0  0  0  0  0  0  0  0  0  0  0
   25.0400   29.6020   15.9960 C   0  0  0  0  0  0  0  0  0  0  0  0
   24.5820   28.2340   17.6050 N   0  0  0  0  0  0  0  0  0  0  0  0
   23.7030   29.5210   16.0970 N   0  0  0  0  0  0  0  0  0  0  0  0
   23.4580   28.6690   17.0970 N   0  0  0  0  0  0  0  0  0  0  0  0
   22.7420   30.2220   15.2760 C   0  0  0  0  0  0  0  0  0  0  0  0
   21.3680   29.5990   15.3780 C   0  0  0  0  0  0  0  0  0  0  0  0
   23.2130   30.3440   13.8580 C   0  0  0  0  0  0  0  0  0  0  0  0
   21.1960   28.4230   14.4460 C   0  0  0  0  0  0  0  0  0  0  0  0
   23.0220   29.1030   13.0430 C   0  0  0  0  0  0  0  0  0  0  0  0
   21.6520   28.6960   13.1150 N   0  0  0  0  0  0  0  0  0  0  0  0
   20.8250   29.6360   12.4140 C   0  0  0  0  0  0  0  0  0  0  0  0
   29.8670   25.5550   16.9770 C   0  0  0  0  0  0  0  0  0  0  0  0
   28.3450   25.7220   17.0260 C   0  0  0  0  0  0  0  0  0  0  0  0
   27.6010   24.4010   16.9040 C   0  0  0  0  0  0  0  0  0  0  0  0
   26.4820   24.2860   17.9010 C   0  0  0  0  0  0  0  0  0  0  0  0
   25.5120   23.1970   17.4540 C   0  0  0  0  0  0  0  0  0  0  0  0
   24.1760   23.7750   17.1770 N   0  0  0  0  0  0  0  0  0  0  0  0
  2  1  1  1  0  0  0
  3  2  1  0  0  0  0
  3 23  1  1  0  0  0
  4  7  1  0  0  0  0
  4  3  1  1  0  0  0
  5 12  1  6  0  0  0
  5  7  1  0  0  0  0
  5 10  1  0  0  0  0
  6  5  1  0  0  0  0
  8 16  1  1  0  0  0
  8  6  1  0  0  0  0
  8  9  1  0  0  0  0
  9 18  1  6  0  0  0
  9  4  1  0  0  0  0
 11 10  1  0  0  0  0
 13 12  2  0  0  0  0
 14 12  1  0  0  0  0
 14 15  1  0  0  0  0
 16 17  1  0  0  0  0
 18 19  1  0  0  0  0
 19 22  2  0  0  0  0
 20 18  1  0  0  0  0
 21 19  1  0  0  0  0
 23 24  1  0  0  0  0
 25 26  1  0  0  0  0
 25  2  1  0  0  0  0
 27 28  1  0  0  0  0
 27  1  1  0  0  0  0
 28 30  2  0  0  0  0
 29 27  1  0  0  0  0
 31 28  1  0  0  0  0
 31 32  1  0  0  0  0
 33 32  1  0  0  0  0
 33 35  1  0  0  0  0
 34 36  1  0  0  0  0
 34 33  2  0  0  0  0
 36 37  1  0  0  0  0
 37 35  2  0  0  0  0
 38 39  1  0  0  0  0
 38 36  1  0  0  0  0
 40 38  1  0  0  0  0
 41 39  1  0  0  0  0
 42 43  1  0  0  0  0
 42 40  1  0  0  0  0
 43 41  1  0  0  0  0
 44 43  1  0  0  0  0
 45 46  1  0  0  0  0
 47 46  1  0  0  0  0
 47 48  1  0  0  0  0
 49 48  1  0  0  0  0
 50 49  1  0  0  0  0
M  END
>  <REMARK>
 VINA RESULT:    -4.725      4.347      9.109
 INTER + INTRA:         -13.964
 INTER:                  -8.738
 INTRA:                  -5.226
 UNBOUND:                -5.786
 SMILES CC(=O)N[C@@H]1[C@@H](O)C[C@](O)(C(=O)O)O[C@H]1C(O)[C@H](O)CNC(=O)OCc1cn(C2CCN(C)CC2)nn1
 SMILES IDX 20 1 18 2 16 3 15 4 9 5 8 6 14 7 6 8 5 9 10 10 11 12 12 13
 SMILES IDX 13 14 7 16 4 18 2 19 1 21 3 22 17 23 19 25 21 27 22 28 23 30
 SMILES IDX 24 31 25 32 26 33 27 34 37 35 28 36 36 37 29 38 30 39 35 40
 SMILES IDX 31 41 34 42 32 43 33 44
 H PARENT 10 11 13 15 7 17 4 20 17 24 19 26 21 29
 Flexibility Score: inf
  4 active torsions:
  status: ('A' for Active; 'I' for Inactive)
    1  A    between atoms: CA   and  CB  
    2  A    between atoms: CB   and  CG  
    3  A    between atoms: CG   and  CD  
    4  A    between atoms: CD   and  CE  

>  <TORSDO>
F 15

>  <BEGIN_>
RES LYS A 131

$$$$
ligand_57_pose_3_2HRL.pdbqt
 OpenBabel07062320523D

  6  5  0  0  0  0  0  0  0  0999 V2000
   33.1930   34.6630    9.2900 C   0  0  0  0  0  0  0  0  0  0  0  0
   32.0600   35.3600   10.0340 C   0  0  0  0  0  0  0  0  0  0  0  0
   30.7880   35.4640    9.2330 C   0  0  0  0  0  0  0  0  0  0  0  0
   30.2160   34.0840    8.9520 C   0  0  0  0  0  0  0  0  0  0  0  0
   28.7700   34.0040    9.4030 C   0  0  0  0  0  0  0  0  0  0  0  0
   27.8530   34.5550    8.3660 N   0  0  0  0  0  0  0  0  0  0  0  0
  1  2  1  0  0  0  0
  3  2  1  0  0  0  0
  4  3  1  0  0  0  0
  4  5  1  0  0  0  0
  6  5  1  0  0  0  0
M  END
>  <EGIN_R>
ES LYS A 135

>  <REMARK>
  4 active torsions:
  status: ('A' for Active; 'I' for Inactive)
    5  A    between atoms: CA   and  CB  
    6  A    between atoms: CB   and  CG  
    7  A    between atoms: CG   and  CD  
    8  A    between atoms: CD   and  CE  

$$$$
