ligand_53_pose_18_2HRL.pdbqt
 OpenBabel07062320523D

 48 48  0  0  1  0  0  0  0  0999 V2000
   24.3400   42.3310    7.4920 N   0  0  0  0  0  0  0  0  0  0  0  0
   23.9110   43.0090    6.3350 C   0  0  0  0  0  0  0  0  0  0  0  0
   22.7190   43.1720    6.0740 O   0  0  0  0  0  0  0  0  0  0  0  0
   25.3980   42.2650    7.6050 H   0  0  0  0  0  0  0  0  0  0  0  0
   23.5060   41.7350    8.5020 C   0  0  0  0  0  0  0  0  0  0  0  0
   23.0450   40.3390    8.2270 C   0  0  2  0  0  0  0  0  0  0  0  0
   24.1480   39.3700    8.0220 C   0  0  1  0  0  0  0  0  0  0  0  0
   23.8010   37.9310    8.2950 C   0  0  2  0  0  0  0  0  0  0  0  0
   22.0780   36.6210    9.2170 C   0  0  2  0  0  0  0  0  0  0  0  0
   23.0480   35.6290    9.7680 C   0  0  0  0  0  0  0  0  0  0  0  0
   22.5380   37.8510    8.8980 O   0  0  0  0  0  0  0  0  0  0  0  0
   24.3700   35.7280    9.0730 C   0  0  1  0  0  0  0  0  0  0  0  0
   24.7780   37.2090    9.1850 C   0  0  1  0  0  0  0  0  0  0  0  0
   21.0230   36.7130   10.1720 O   0  0  0  0  0  0  0  0  0  0  0  0
   20.7310   37.6650   10.1420 H   0  0  0  0  0  0  0  0  0  0  0  0
   21.4230   36.0110    8.0210 C   0  0  0  0  0  0  0  0  0  0  0  0
   20.7890   34.9360    8.0310 O   0  0  0  0  0  0  0  0  0  0  0  0
   21.5190   36.6720    6.8140 O   0  0  0  0  0  0  0  0  0  0  0  0
   22.2840   36.5230    6.1600 H   0  0  0  0  0  0  0  0  0  0  0  0
   25.3420   34.9160    9.6490 O   0  0  0  0  0  0  0  0  0  0  0  0
   24.8670   34.2520   10.2120 H   0  0  0  0  0  0  0  0  0  0  0  0
   26.1620   37.3310    8.8620 N   0  0  0  0  0  0  0  0  0  0  0  0
   27.1040   37.9400    9.7450 C   0  0  0  0  0  0  0  0  0  0  0  0
   26.5200   36.9580    7.9640 H   0  0  0  0  0  0  0  0  0  0  0  0
   28.5460   38.0850    9.4450 C   0  0  0  0  0  0  0  0  0  0  0  0
   26.6790   38.3760   10.8400 O   0  0  0  0  0  0  0  0  0  0  0  0
   24.7850   39.5650    6.8080 O   0  0  0  0  0  0  0  0  0  0  0  0
   25.5290   40.2170    6.8780 H   0  0  0  0  0  0  0  0  0  0  0  0
   22.1760   40.3720    7.1250 O   0  0  0  0  0  0  0  0  0  0  0  0
   21.2880   40.0110    7.3470 H   0  0  0  0  0  0  0  0  0  0  0  0
   24.8310   43.5300    5.4300 O   0  0  0  0  0  0  0  0  0  0  0  0
   25.3700   42.8400    4.3470 C   0  0  0  0  0  0  0  0  0  0  0  0
   26.2640   41.7150    4.7150 C   0  0  0  0  0  0  0  0  0  0  0  0
   26.5530   40.5710    4.0370 C   0  0  0  0  0  0  0  0  0  0  0  0
   26.9900   41.6380    5.8680 N   0  0  0  0  0  0  0  0  0  0  0  0
   27.4190   39.8460    4.7660 N   0  0  0  0  0  0  0  0  0  0  0  0
   27.6740   40.5010    5.8670 N   0  0  0  0  0  0  0  0  0  0  0  0
   27.9660   38.5610    4.3820 C   0  0  0  0  0  0  0  0  0  0  0  0
   28.0320   37.6740    5.5600 C   0  0  0  0  0  0  0  0  0  0  0  0
   26.9660   37.3790    6.1700 O   0  0  0  0  0  0  0  0  0  0  0  0
   29.2400   37.1700    5.9930 O   0  0  0  0  0  0  0  0  0  0  0  0
   29.2970   36.8910    6.9770 H   0  0  0  0  0  0  0  0  0  0  0  0
   29.8670   25.5550   16.9770 C   0  0  0  0  0  0  0  0  0  0  0  0
   28.3450   25.7220   17.0260 C   0  0  0  0  0  0  0  0  0  0  0  0
   27.6010   24.4030   16.8880 C   0  0  0  0  0  0  0  0  0  0  0  0
   26.1740   24.5060   17.3510 C   0  0  0  0  0  0  0  0  0  0  0  0
   25.6130   23.1070   17.5860 C   0  0  0  0  0  0  0  0  0  0  0  0
   25.2230   22.9370   19.0050 N   0  0  0  0  0  0  0  0  0  0  0  0
  1  4  1  0  0  0  0
  1  5  1  0  0  0  0
  2  1  1  0  0  0  0
  3  2  2  0  0  0  0
  6  5  1  6  0  0  0
  7 27  1  6  0  0  0
  7  6  1  0  0  0  0
  8  7  1  1  0  0  0
  8 11  1  0  0  0  0
  8 13  1  0  0  0  0
  9 16  1  6  0  0  0
  9 10  1  0  0  0  0
  9 14  1  0  0  0  0
 11  9  1  0  0  0  0
 12 13  1  0  0  0  0
 12 20  1  1  0  0  0
 12 10  1  0  0  0  0
 13 22  1  6  0  0  0
 15 14  1  0  0  0  0
 16 17  2  0  0  0  0
 18 16  1  0  0  0  0
 19 18  1  0  0  0  0
 20 21  1  0  0  0  0
 22 23  1  0  0  0  0
 23 26  2  0  0  0  0
 24 22  1  0  0  0  0
 25 23  1  0  0  0  0
 27 28  1  0  0  0  0
 29 30  1  0  0  0  0
 29  6  1  0  0  0  0
 31  2  1  0  0  0  0
 32 33  1  0  0  0  0
 32 31  1  0  0  0  0
 33 35  1  0  0  0  0
 34 33  2  0  0  0  0
 34 36  1  0  0  0  0
 36 37  1  0  0  0  0
 37 35  2  0  0  0  0
 38 36  1  0  0  0  0
 38 39  1  0  0  0  0
 39 41  1  0  0  0  0
 39 40  2  0  0  0  0
 41 42  1  0  0  0  0
 43 44  1  0  0  0  0
 45 44  1  0  0  0  0
 45 46  1  0  0  0  0
 46 47  1  0  0  0  0
 47 48  1  0  0  0  0
M  END
>  <REMARK>
 VINA RESULT:    -3.801      6.131     10.175
 INTER + INTRA:         -13.273
 INTER:                  -6.911
 INTRA:                  -6.362
 UNBOUND:                -6.362
 SMILES CC(=O)N[C@@H]1[C@@H](O)C[C@](O)(C(=O)O)O[C@H]1C(O)[C@H](O)CNC(=O)OCc1cn(CC(=O)O)nn1
 SMILES IDX 21 1 22 2 23 3 20 5 18 6 16 7 15 8 9 9 8 10 14 11 6 12 5 13
 SMILES IDX 10 14 11 16 12 17 13 18 7 20 4 22 2 23 1 25 3 26 17 27 19 29
 SMILES IDX 24 31 25 32 26 33 27 34 34 35 28 36 33 37 29 38 30 39 31 40
 SMILES IDX 32 41
 H PARENT 21 4 10 15 13 19 7 21 4 24 17 28 19 30 32 42
 Flexibility Score: inf
  4 active torsions:
  status: ('A' for Active; 'I' for Inactive)
    1  A    between atoms: CA   and  CB  
    2  A    between atoms: CB   and  CG  
    3  A    between atoms: CG   and  CD  
    4  A    between atoms: CD   and  CE  

>  <TORSDO>
F 17

>  <BEGIN_>
RES LYS A 131

$$$$
ligand_53_pose_18_2HRL.pdbqt
 OpenBabel07062320523D

  6  5  0  0  0  0  0  0  0  0999 V2000
   33.1930   34.6630    9.2900 C   0  0  0  0  0  0  0  0  0  0  0  0
   32.0600   35.3600   10.0340 C   0  0  0  0  0  0  0  0  0  0  0  0
   30.7200   34.6950    9.8500 C   0  0  0  0  0  0  0  0  0  0  0  0
   30.2540   34.8180    8.4080 C   0  0  0  0  0  0  0  0  0  0  0  0
   28.7740   34.5020    8.2980 C   0  0  0  0  0  0  0  0  0  0  0  0
   28.2940   33.7580    9.4950 N   0  0  0  0  0  0  0  0  0  0  0  0
  1  2  1  0  0  0  0
  3  2  1  0  0  0  0
  4  3  1  0  0  0  0
  5  4  1  0  0  0  0
  5  6  1  0  0  0  0
M  END
>  <EGIN_R>
ES LYS A 135

>  <REMARK>
  4 active torsions:
  status: ('A' for Active; 'I' for Inactive)
    5  A    between atoms: CA   and  CB  
    6  A    between atoms: CB   and  CG  
    7  A    between atoms: CG   and  CD  
    8  A    between atoms: CD   and  CE  

$$$$
