ligand_10_pose_16_2HRL.pdbqt
 OpenBabel07062320523D

 53 53  0  0  1  0  0  0  0  0999 V2000
   27.8740   29.1770   17.3500 N   0  0  0  0  0  0  0  0  0  0  0  0
   27.1180   28.0950   17.8930 C   0  0  0  0  0  0  0  0  0  0  0  0
   25.9410   27.9590   17.5410 O   0  0  0  0  0  0  0  0  0  0  0  0
   28.8680   29.2300   17.6960 H   0  0  0  0  0  0  0  0  0  0  0  0
   27.3710   30.1320   16.4130 C   0  0  0  0  0  0  0  0  0  0  0  0
   27.8740   31.5240   16.7380 C   0  0  2  0  0  0  0  0  0  0  0  0
   29.0870   31.8780   15.8970 C   0  0  2  0  0  0  0  0  0  0  0  0
   28.9150   33.0910   15.0550 C   0  0  2  0  0  0  0  0  0  0  0  0
   31.1870   33.5710   15.0220 C   0  0  2  0  0  0  0  0  0  0  0  0
   31.0650   34.2910   16.2980 C   0  0  0  0  0  0  0  0  0  0  0  0
   30.0500   33.3620   14.2860 O   0  0  0  0  0  0  0  0  0  0  0  0
   29.7310   34.7590   16.7280 C   0  0  1  0  0  0  0  0  0  0  0  0
   28.5860   34.3160   15.8620 C   0  0  1  0  0  0  0  0  0  0  0  0
   31.7550   32.2850   15.2130 O   0  0  0  0  0  0  0  0  0  0  0  0
   31.3920   31.7360   14.4680 H   0  0  0  0  0  0  0  0  0  0  0  0
   32.1490   34.2560   14.1150 C   0  0  0  0  0  0  0  0  0  0  0  0
   33.2750   34.6780   14.4680 O   0  0  0  0  0  0  0  0  0  0  0  0
   31.7700   34.4350   12.7940 O   0  0  0  0  0  0  0  0  0  0  0  0
   31.0980   33.8110   12.3270 H   0  0  0  0  0  0  0  0  0  0  0  0
   29.4850   34.3910   18.0480 O   0  0  0  0  0  0  0  0  0  0  0  0
   30.1420   33.7840   18.4280 H   0  0  0  0  0  0  0  0  0  0  0  0
   28.2040   35.4050   14.9290 N   0  0  0  0  0  0  0  0  0  0  0  0
   26.8480   35.6510   14.6180 C   0  0  0  0  0  0  0  0  0  0  0  0
   28.9220   36.0120   14.4800 H   0  0  0  0  0  0  0  0  0  0  0  0
   26.4180   36.7330   13.6850 C   0  0  0  0  0  0  0  0  0  0  0  0
   25.9770   34.9300   15.1490 O   0  0  0  0  0  0  0  0  0  0  0  0
   29.2330   30.7360   15.0580 O   0  0  0  0  0  0  0  0  0  0  0  0
   29.2570   29.9130   15.6000 H   0  0  0  0  0  0  0  0  0  0  0  0
   28.1040   31.5940   18.1050 O   0  0  0  0  0  0  0  0  0  0  0  0
   29.0210   31.8850   18.3350 H   0  0  0  0  0  0  0  0  0  0  0  0
   27.6540   27.1950   18.7980 O   0  0  0  0  0  0  0  0  0  0  0  0
   27.7410   27.5300   20.1610 C   0  0  0  0  0  0  0  0  0  0  0  0
   29.1280   27.8310   20.5890 C   0  0  0  0  0  0  0  0  0  0  0  0
   29.6880   29.0810   20.4710 C   0  0  0  0  0  0  0  0  0  0  0  0
   30.0550   27.0450   21.1300 N   0  0  0  0  0  0  0  0  0  0  0  0
   30.9560   29.0130   20.9520 N   0  0  0  0  0  0  0  0  0  0  0  0
   31.1350   27.7810   21.3340 N   0  0  0  0  0  0  0  0  0  0  0  0
   31.8490   30.1680   20.9810 C   0  0  1  0  0  0  0  0  0  0  0  0
   31.0590   31.4040   21.3110 C   0  0  0  0  0  0  0  0  0  0  0  0
   31.0770   32.3920   20.2210 C   0  0  0  0  0  0  0  0  0  0  0  0
   31.3380   33.5900   20.4920 O   0  0  0  0  0  0  0  0  0  0  0  0
   30.8060   31.9780   18.9260 O   0  0  0  0  0  0  0  0  0  0  0  0
   30.5490   30.9930   18.7610 H   0  0  0  0  0  0  0  0  0  0  0  0
   32.8320   29.9700   22.0810 C   0  0  0  0  0  0  0  0  0  0  0  0
   32.8990   30.7010   23.1010 O   0  0  0  0  0  0  0  0  0  0  0  0
   33.7270   28.9200   21.9750 O   0  0  0  0  0  0  0  0  0  0  0  0
   33.8760   28.4130   21.1110 H   0  0  0  0  0  0  0  0  0  0  0  0
   29.8670   25.5550   16.9770 C   0  0  0  0  0  0  0  0  0  0  0  0
   28.3450   25.7220   17.0260 C   0  0  0  0  0  0  0  0  0  0  0  0
   27.5990   24.4770   16.5700 C   0  0  0  0  0  0  0  0  0  0  0  0
   27.0080   23.7160   17.7240 C   0  0  0  0  0  0  0  0  0  0  0  0
   25.7100   24.3860   18.1640 C   0  0  0  0  0  0  0  0  0  0  0  0
   24.5480   23.7480   17.5030 N   0  0  0  0  0  0  0  0  0  0  0  0
  1  4  1  0  0  0  0
  1  2  1  0  0  0  0
  2 31  1  0  0  0  0
  3  2  2  0  0  0  0
  5  1  1  0  0  0  0
  6  5  1  1  0  0  0
  6 29  1  0  0  0  0
  7 27  1  6  0  0  0
  7  6  1  0  0  0  0
  8 13  1  0  0  0  0
  8  7  1  1  0  0  0
  9 16  1  6  0  0  0
  9 14  1  0  0  0  0
  9 10  1  0  0  0  0
 10 12  1  0  0  0  0
 11  9  1  0  0  0  0
 11  8  1  0  0  0  0
 12 20  1  1  0  0  0
 13 22  1  6  0  0  0
 13 12  1  0  0  0  0
 15 14  1  0  0  0  0
 16 17  2  0  0  0  0
 18 16  1  0  0  0  0
 19 18  1  0  0  0  0
 20 21  1  0  0  0  0
 23 22  1  0  0  0  0
 23 26  2  0  0  0  0
 24 22  1  0  0  0  0
 25 23  1  0  0  0  0
 27 28  1  0  0  0  0
 29 30  1  0  0  0  0
 31 32  1  0  0  0  0
 32 33  1  0  0  0  0
 33 35  1  0  0  0  0
 34 33  2  0  0  0  0
 34 36  1  0  0  0  0
 35 37  2  0  0  0  0
 36 38  1  0  0  0  0
 36 37  1  0  0  0  0
 38 39  1  1  0  0  0
 38 44  1  0  0  0  0
 40 41  2  0  0  0  0
 40 39  1  0  0  0  0
 42 40  1  0  0  0  0
 43 42  1  0  0  0  0
 44 45  2  0  0  0  0
 46 44  1  0  0  0  0
 47 46  1  0  0  0  0
 48 49  1  0  0  0  0
 50 49  1  0  0  0  0
 50 51  1  0  0  0  0
 51 52  1  0  0  0  0
 53 52  1  0  0  0  0
M  END
>  <REMARK>
 VINA RESULT:    -4.458      3.081      6.616
 INTER + INTRA:         -14.503
 INTER:                  -8.861
 INTRA:                  -5.642
 UNBOUND:                -5.744
 SMILES CC(=O)N[C@@H]1[C@@H](O)C[C@](O)(C(=O)O)O[C@H]1C(O)[C@H](O)CNC(=O)OCc1cn([C@@H](CC(=O)O)C(=O)O)nn1
 SMILES IDX 21 1 22 2 23 3 20 5 18 6 16 7 15 8 9 9 8 10 14 11 6 12 5 13
 SMILES IDX 10 14 11 16 12 17 13 18 7 20 4 22 2 23 1 25 3 26 17 27 19 29
 SMILES IDX 24 31 25 32 26 33 27 34 38 35 28 36 37 37 29 38 30 39 31 40
 SMILES IDX 32 41 33 42 34 44 35 45 36 46
 H PARENT 21 4 10 15 13 19 7 21 4 24 17 28 19 30 33 43 36 47
 Flexibility Score: inf
  4 active torsions:
  status: ('A' for Active; 'I' for Inactive)
    1  A    between atoms: CA   and  CB  
    2  A    between atoms: CB   and  CG  
    3  A    between atoms: CG   and  CD  
    4  A    between atoms: CD   and  CE  

>  <TORSDO>
F 20

>  <BEGIN_>
RES LYS A 131

$$$$
ligand_10_pose_16_2HRL.pdbqt
 OpenBabel07062320523D

  6  5  0  0  0  0  0  0  0  0999 V2000
   33.1930   34.6630    9.2900 C   0  0  0  0  0  0  0  0  0  0  0  0
   32.0600   35.3600   10.0340 C   0  0  0  0  0  0  0  0  0  0  0  0
   30.7000   35.1020    9.4390 C   0  0  0  0  0  0  0  0  0  0  0  0
   29.7540   36.2540    9.7400 C   0  0  0  0  0  0  0  0  0  0  0  0
   29.1660   36.1100   11.1310 C   0  0  0  0  0  0  0  0  0  0  0  0
   28.6890   34.7200   11.3700 N   0  0  0  0  0  0  0  0  0  0  0  0
  1  2  1  0  0  0  0
  3  4  1  0  0  0  0
  3  2  1  0  0  0  0
  4  5  1  0  0  0  0
  5  6  1  0  0  0  0
M  END
>  <EGIN_R>
ES LYS A 135

>  <REMARK>
  4 active torsions:
  status: ('A' for Active; 'I' for Inactive)
    5  A    between atoms: CA   and  CB  
    6  A    between atoms: CB   and  CG  
    7  A    between atoms: CG   and  CD  
    8  A    between atoms: CD   and  CE  

$$$$
