ligand_10_pose_5_2HRL.pdbqt
 OpenBabel07062320523D

 53 53  0  0  1  0  0  0  0  0999 V2000
   28.0930   29.7490   16.6040 N   0  0  0  0  0  0  0  0  0  0  0  0
   26.6670   29.8060   16.5830 C   0  0  0  0  0  0  0  0  0  0  0  0
   26.1170   30.6050   15.8170 O   0  0  0  0  0  0  0  0  0  0  0  0
   28.4910   29.0460   17.2810 H   0  0  0  0  0  0  0  0  0  0  0  0
   28.9520   30.5560   15.7960 C   0  0  0  0  0  0  0  0  0  0  0  0
   29.6660   31.5960   16.6360 C   0  0  2  0  0  0  0  0  0  0  0  0
   30.5350   32.4930   15.7740 C   0  0  2  0  0  0  0  0  0  0  0  0
   29.8020   33.2000   14.6920 C   0  0  2  0  0  0  0  0  0  0  0  0
   31.5250   34.7100   14.3070 C   0  0  2  0  0  0  0  0  0  0  0  0
   31.0210   35.5770   15.3830 C   0  0  0  0  0  0  0  0  0  0  0  0
   30.6690   33.7860   13.7660 O   0  0  0  0  0  0  0  0  0  0  0  0
   29.6210   35.4200   15.8270 C   0  0  1  0  0  0  0  0  0  0  0  0
   28.8790   34.2650   15.2160 C   0  0  1  0  0  0  0  0  0  0  0  0
   32.6570   33.9690   14.7370 O   0  0  0  0  0  0  0  0  0  0  0  0
   32.7120   33.2030   14.1050 H   0  0  0  0  0  0  0  0  0  0  0  0
   32.0390   35.5190   13.1680 C   0  0  0  0  0  0  0  0  0  0  0  0
   31.5590   36.6190   12.8110 O   0  0  0  0  0  0  0  0  0  0  0  0
   33.1200   35.0170   12.4600 O   0  0  0  0  0  0  0  0  0  0  0  0
   33.8320   34.4200   12.8990 H   0  0  0  0  0  0  0  0  0  0  0  0
   29.5550   35.3330   17.2150 O   0  0  0  0  0  0  0  0  0  0  0  0
   28.6720   35.1300   17.5660 H   0  0  0  0  0  0  0  0  0  0  0  0
   28.0290   34.7420   14.0980 N   0  0  0  0  0  0  0  0  0  0  0  0
   26.6650   34.3800   14.0170 C   0  0  0  0  0  0  0  0  0  0  0  0
   28.4130   35.3520   13.3450 H   0  0  0  0  0  0  0  0  0  0  0  0
   25.7740   34.8350   12.9100 C   0  0  0  0  0  0  0  0  0  0  0  0
   26.1910   33.6490   14.9120 O   0  0  0  0  0  0  0  0  0  0  0  0
   31.4610   31.5760   15.1990 O   0  0  0  0  0  0  0  0  0  0  0  0
   31.5780   30.7920   15.7850 H   0  0  0  0  0  0  0  0  0  0  0  0
   30.3660   30.9370   17.6380 O   0  0  0  0  0  0  0  0  0  0  0  0
   29.8400   30.2270   18.0830 H   0  0  0  0  0  0  0  0  0  0  0  0
   25.8800   28.9990   17.3870 O   0  0  0  0  0  0  0  0  0  0  0  0
   26.3000   27.6970   17.7080 C   0  0  0  0  0  0  0  0  0  0  0  0
   26.8300   27.5900   19.0890 C   0  0  0  0  0  0  0  0  0  0  0  0
   28.1750   27.5360   19.3670 C   0  0  0  0  0  0  0  0  0  0  0  0
   26.1940   27.5290   20.2560 N   0  0  0  0  0  0  0  0  0  0  0  0
   28.3160   27.4440   20.7140 N   0  0  0  0  0  0  0  0  0  0  0  0
   27.1100   27.4420   21.2070 N   0  0  0  0  0  0  0  0  0  0  0  0
   29.6210   27.3670   21.3650 C   0  0  1  0  0  0  0  0  0  0  0  0
   30.3660   28.6550   21.1480 C   0  0  0  0  0  0  0  0  0  0  0  0
   31.7280   28.4380   20.6350 C   0  0  0  0  0  0  0  0  0  0  0  0
   32.6110   29.2980   20.8770 O   0  0  0  0  0  0  0  0  0  0  0  0
   32.0020   27.2950   19.9010 O   0  0  0  0  0  0  0  0  0  0  0  0
   32.9810   26.9760   19.8230 H   0  0  0  0  0  0  0  0  0  0  0  0
   29.4030   27.2290   22.8310 C   0  0  0  0  0  0  0  0  0  0  0  0
   29.7300   28.1030   23.6730 O   0  0  0  0  0  0  0  0  0  0  0  0
   28.8070   26.0700   23.2960 O   0  0  0  0  0  0  0  0  0  0  0  0
   28.9800   25.6990   24.2230 H   0  0  0  0  0  0  0  0  0  0  0  0
   29.8670   25.5550   16.9770 C   0  0  0  0  0  0  0  0  0  0  0  0
   28.3450   25.7220   17.0260 C   0  0  0  0  0  0  0  0  0  0  0  0
   27.6000   24.4130   16.8150 C   0  0  0  0  0  0  0  0  0  0  0  0
   26.8900   23.9580   18.0600 C   0  0  0  0  0  0  0  0  0  0  0  0
   25.3820   24.0420   17.8460 C   0  0  0  0  0  0  0  0  0  0  0  0
   24.8460   22.7290   17.4150 N   0  0  0  0  0  0  0  0  0  0  0  0
  1  4  1  0  0  0  0
  2  1  1  0  0  0  0
  2 31  1  0  0  0  0
  3  2  2  0  0  0  0
  5  1  1  0  0  0  0
  6  5  1  6  0  0  0
  6 29  1  0  0  0  0
  7 27  1  6  0  0  0
  7  6  1  0  0  0  0
  8 13  1  0  0  0  0
  8  7  1  1  0  0  0
  9 16  1  6  0  0  0
  9 14  1  0  0  0  0
  9 10  1  0  0  0  0
 10 12  1  0  0  0  0
 11  9  1  0  0  0  0
 11  8  1  0  0  0  0
 12 20  1  1  0  0  0
 13 22  1  6  0  0  0
 13 12  1  0  0  0  0
 15 14  1  0  0  0  0
 17 16  2  0  0  0  0
 18 19  1  0  0  0  0
 18 16  1  0  0  0  0
 20 21  1  0  0  0  0
 23 22  1  0  0  0  0
 23 26  2  0  0  0  0
 24 22  1  0  0  0  0
 25 23  1  0  0  0  0
 27 28  1  0  0  0  0
 29 30  1  0  0  0  0
 31 32  1  0  0  0  0
 32 33  1  0  0  0  0
 33 34  2  0  0  0  0
 33 35  1  0  0  0  0
 34 36  1  0  0  0  0
 35 37  2  0  0  0  0
 36 37  1  0  0  0  0
 36 38  1  0  0  0  0
 38 39  1  1  0  0  0
 38 44  1  0  0  0  0
 40 41  2  0  0  0  0
 40 39  1  0  0  0  0
 42 40  1  0  0  0  0
 43 42  1  0  0  0  0
 44 46  1  0  0  0  0
 44 45  2  0  0  0  0
 46 47  1  0  0  0  0
 48 49  1  0  0  0  0
 50 49  1  0  0  0  0
 50 51  1  0  0  0  0
 52 51  1  0  0  0  0
 53 52  1  0  0  0  0
M  END
>  <REMARK>
 VINA RESULT:    -4.858      2.913      6.655
 INTER + INTRA:         -15.288
 INTER:                 -10.241
 INTRA:                  -5.047
 UNBOUND:                -5.744
 SMILES CC(=O)N[C@@H]1[C@@H](O)C[C@](O)(C(=O)O)O[C@H]1C(O)[C@H](O)CNC(=O)OCc1cn([C@@H](CC(=O)O)C(=O)O)nn1
 SMILES IDX 21 1 22 2 23 3 20 5 18 6 16 7 15 8 9 9 8 10 14 11 6 12 5 13
 SMILES IDX 10 14 11 16 12 17 13 18 7 20 4 22 2 23 1 25 3 26 17 27 19 29
 SMILES IDX 24 31 25 32 26 33 27 34 38 35 28 36 37 37 29 38 30 39 31 40
 SMILES IDX 32 41 33 42 34 44 35 45 36 46
 H PARENT 21 4 10 15 13 19 7 21 4 24 17 28 19 30 33 43 36 47
 Flexibility Score: inf
  4 active torsions:
  status: ('A' for Active; 'I' for Inactive)
    1  A    between atoms: CA   and  CB  
    2  A    between atoms: CB   and  CG  
    3  A    between atoms: CG   and  CD  
    4  A    between atoms: CD   and  CE  

>  <TORSDO>
F 20

>  <BEGIN_>
RES LYS A 131

$$$$
ligand_10_pose_5_2HRL.pdbqt
 OpenBabel07062320523D

  6  5  0  0  0  0  0  0  0  0999 V2000
   33.1930   34.6630    9.2900 C   0  0  0  0  0  0  0  0  0  0  0  0
   32.0600   35.3600   10.0340 C   0  0  0  0  0  0  0  0  0  0  0  0
   30.7000   34.7800    9.7410 C   0  0  0  0  0  0  0  0  0  0  0  0
   30.4520   34.7240    8.2420 C   0  0  0  0  0  0  0  0  0  0  0  0
   29.0000   35.0330    7.9300 C   0  0  0  0  0  0  0  0  0  0  0  0
   28.8450   35.5260    6.5330 N   0  0  0  0  0  0  0  0  0  0  0  0
  1  2  1  0  0  0  0
  3  2  1  0  0  0  0
  4  3  1  0  0  0  0
  5  4  1  0  0  0  0
  6  5  1  0  0  0  0
M  END
>  <EGIN_R>
ES LYS A 135

>  <REMARK>
  4 active torsions:
  status: ('A' for Active; 'I' for Inactive)
    5  A    between atoms: CA   and  CB  
    6  A    between atoms: CB   and  CG  
    7  A    between atoms: CG   and  CD  
    8  A    between atoms: CD   and  CE  

$$$$
