ligand_80_pose_4_2HRL.pdbqt
 OpenBabel07062320523D

 56 54  0  0  1  0  0  0  0  0999 V2000
   30.9340   30.5290   19.6930 O   0  0  0  0  0  0  0  0  0  0  0  0
   29.8420   30.8880   18.9410 C   0  0  0  0  0  0  0  0  0  0  0  0
   29.8920   30.7940   17.5090 N   0  0  0  0  0  0  0  0  0  0  0  0
   30.7900   30.4410   17.1030 H   0  0  0  0  0  0  0  0  0  0  0  0
   28.7780   31.3070   19.4610 O   0  0  0  0  0  0  0  0  0  0  0  0
   28.7630   31.1650   16.6770 C   0  0  0  0  0  0  0  0  0  0  0  0
   29.2660   32.0480   15.5610 C   0  0  2  0  0  0  0  0  0  0  0  0
   30.6370   32.6210   15.8490 C   0  0  2  0  0  0  0  0  0  0  0  0
   30.7190   34.0810   15.3760 C   0  0  2  0  0  0  0  0  0  0  0  0
   30.9570   35.1460   13.2990 C   0  0  2  0  0  0  0  0  0  0  0  0
   31.7210   36.1970   14.0430 C   0  0  0  0  0  0  0  0  0  0  0  0
   30.5280   34.0850   14.0480 O   0  0  0  0  0  0  0  0  0  0  0  0
   32.7570   35.4580   14.8740 C   0  0  1  0  0  0  0  0  0  0  0  0
   32.0140   34.6230   15.8860 C   0  0  1  0  0  0  0  0  0  0  0  0
   31.8100   34.6010   12.3170 O   0  0  0  0  0  0  0  0  0  0  0  0
   31.3870   34.8360   11.4510 H   0  0  0  0  0  0  0  0  0  0  0  0
   29.7810   35.7020   12.5840 C   0  0  0  0  0  0  0  0  0  0  0  0
   28.7920   34.9690   12.3690 O   0  0  0  0  0  0  0  0  0  0  0  0
   29.7360   37.0210   12.1410 O   0  0  0  0  0  0  0  0  0  0  0  0
   28.8300   37.3450   11.7730 H   0  0  0  0  0  0  0  0  0  0  0  0
   33.4460   34.6100   14.0140 O   0  0  0  0  0  0  0  0  0  0  0  0
   34.0790   35.1620   13.4950 H   0  0  0  0  0  0  0  0  0  0  0  0
   31.7200   35.4900   17.0130 N   0  0  0  0  0  0  0  0  0  0  0  0
   32.7140   36.0060   17.8860 C   0  0  0  0  0  0  0  0  0  0  0  0
   30.7050   35.7560   17.2000 H   0  0  0  0  0  0  0  0  0  0  0  0
   32.2900   36.8810   19.0040 C   0  0  0  0  0  0  0  0  0  0  0  0
   33.9160   35.6970   17.6740 O   0  0  0  0  0  0  0  0  0  0  0  0
   31.5440   31.8750   15.0890 O   0  0  0  0  0  0  0  0  0  0  0  0
   31.1830   31.0140   14.7860 H   0  0  0  0  0  0  0  0  0  0  0  0
   28.3600   33.0610   15.2700 O   0  0  0  0  0  0  0  0  0  0  0  0
   28.7560   33.9550   15.3320 H   0  0  0  0  0  0  0  0  0  0  0  0
   30.7960   29.8820   20.9470 C   0  0  0  0  0  0  0  0  0  0  0  0
   31.4230   30.6760   22.0330 C   0  0  0  0  0  0  0  0  0  0  0  0
   32.8010   30.8710   22.1760 C   0  0  0  0  0  0  0  0  0  0  0  0
   30.8670   31.3440   23.0600 N   0  0  0  0  0  0  0  0  0  0  0  0
   33.0220   31.6300   23.2620 N   0  0  0  0  0  0  0  0  0  0  0  0
   31.8380   31.8960   23.7670 N   0  0  0  0  0  0  0  0  0  0  0  0
   34.3050   32.0600   23.7750 *   0  0  0  0  0  0  0  0  0  0  0  0
   35.4090   31.2020   23.2620 C   0  0  0  0  0  0  0  0  0  0  0  0
   36.2670   31.3230   22.1420 N   0  0  0  0  0  0  0  0  0  0  0  0
   35.5920   30.1860   23.9780 O   0  0  0  0  0  0  0  0  0  0  0  0
   36.7990   30.4870   21.8220 H   0  0  0  0  0  0  0  0  0  0  0  0
   36.5090   32.5030   21.3550 C   0  0  0  0  0  0  0  0  0  0  0  0
   35.7140   33.6320   21.2740 C   0  0  0  0  0  0  0  0  0  0  0  0
   37.6910   32.3850   20.6490 C   0  0  0  0  0  0  0  0  0  0  0  0
   36.1180   34.6510   20.4690 C   0  0  0  0  0  0  0  0  0  0  0  0
   38.0980   33.4200   19.8350 C   0  0  0  0  0  0  0  0  0  0  0  0
   37.3050   34.5420   19.7550 C   0  0  0  0  0  0  0  0  0  0  0  0
   34.4290   33.8670   21.9850 C   0  0  0  0  0  0  0  0  0  0  0  0
   34.5210   33.5410   23.4660 *   0  0  0  0  0  0  0  0  0  0  0  0
   29.8670   25.5550   16.9770 C   0  0  0  0  0  0  0  0  0  0  0  0
   28.3450   25.7220   17.0260 C   0  0  0  0  0  0  0  0  0  0  0  0
   27.5990   24.4710   16.5880 C   0  0  0  0  0  0  0  0  0  0  0  0
   27.0010   23.7310   17.7530 C   0  0  0  0  0  0  0  0  0  0  0  0
   25.6080   23.2350   17.3800 C   0  0  0  0  0  0  0  0  0  0  0  0
   24.7250   24.3760   17.0390 N   0  0  0  0  0  0  0  0  0  0  0  0
  1 32  1  0  0  0  0
  2  5  2  0  0  0  0
  2  1  1  0  0  0  0
  3  2  1  0  0  0  0
  4  3  1  0  0  0  0
  6  3  1  0  0  0  0
  7  8  1  0  0  0  0
  7  6  1  1  0  0  0
  8 28  1  6  0  0  0
  9  8  1  6  0  0  0
  9 14  1  0  0  0  0
 10 15  1  6  0  0  0
 10 11  1  0  0  0  0
 10 12  1  0  0  0  0
 11 13  1  0  0  0  0
 12  9  1  0  0  0  0
 13 21  1  6  0  0  0
 13 14  1  0  0  0  0
 14 23  1  1  0  0  0
 16 15  1  0  0  0  0
 17 10  1  0  0  0  0
 18 17  2  0  0  0  0
 19 17  1  0  0  0  0
 20 19  1  0  0  0  0
 22 21  1  0  0  0  0
 23 25  1  0  0  0  0
 23 24  1  0  0  0  0
 24 26  1  0  0  0  0
 27 24  2  0  0  0  0
 29 28  1  0  0  0  0
 30 31  1  0  0  0  0
 30  7  1  0  0  0  0
 32 33  1  0  0  0  0
 33 34  2  0  0  0  0
 33 35  1  0  0  0  0
 34 36  1  0  0  0  0
 35 37  1  0  0  0  0
 36 37  2  0  0  0  0
 39 41  2  0  0  0  0
 40 39  1  0  0  0  0
 42 40  1  0  0  0  0
 43 40  1  0  0  0  0
 44 43  1  0  0  0  0
 44 49  1  0  0  0  0
 45 43  2  0  0  0  0
 46 44  2  0  0  0  0
 47 45  1  0  0  0  0
 48 47  2  0  0  0  0
 48 46  1  0  0  0  0
 51 52  1  0  0  0  0
 53 52  1  0  0  0  0
 53 54  1  0  0  0  0
 55 54  1  0  0  0  0
 56 55  1  0  0  0  0
M  END
>  <REMARK>
 VINA RESULT:    -9.267      4.806     10.064
 INTER + INTRA:         -13.652
 INTER:                  -9.223
 INTRA:                  -4.428
 UNBOUND:                 4.555
 SMILES CC(=O)N[C@@H]1[C@@H](O)C[C@](O)(C(=O)O)O[C@H]1C(O)[C@H](O)CNC(=O)OCc1cn(C2CCc3ccccc3NC2=O)nn1
 SMILES IDX 24 1 22 2 21 3 23 5 20 6 18 7 16 8 15 9 9 10 8 11 14 12 6 13
 SMILES IDX 5 14 10 15 11 17 12 18 13 19 7 21 4 23 2 24 1 26 3 27 17 28
 SMILES IDX 19 30 25 32 26 33 27 34 42 35 28 36 41 37 29 38 39 40 38 41
 SMILES IDX 40 42 37 44 32 45 36 46 33 47 35 48 34 49 31 50 30 51
 H PARENT 21 4 10 16 13 20 7 22 4 25 17 29 19 31 38 43
 Flexibility Score: 80.00
  4 active torsions:
  status: ('A' for Active; 'I' for Inactive)
    1  A    between atoms: CA   and  CB  
    2  A    between atoms: CB   and  CG  
    3  A    between atoms: CG   and  CD  
    4  A    between atoms: CD   and  CE  

>  <TORSDO>
F 15

>  <BEGIN_>
RES LYS A 131

$$$$
ligand_80_pose_4_2HRL.pdbqt
 OpenBabel07062320523D

  6  5  0  0  0  0  0  0  0  0999 V2000
   33.1930   34.6630    9.2900 C   0  0  0  0  0  0  0  0  0  0  0  0
   32.0600   35.3600   10.0340 C   0  0  0  0  0  0  0  0  0  0  0  0
   30.8730   35.6790    9.1620 C   0  0  0  0  0  0  0  0  0  0  0  0
   30.0740   34.4210    8.8620 C   0  0  0  0  0  0  0  0  0  0  0  0
   28.6690   34.7760    8.4130 C   0  0  0  0  0  0  0  0  0  0  0  0
   27.6490   34.0340    9.2040 N   0  0  0  0  0  0  0  0  0  0  0  0
  1  2  1  0  0  0  0
  3  2  1  0  0  0  0
  4  3  1  0  0  0  0
  5  4  1  0  0  0  0
  5  6  1  0  0  0  0
M  END
>  <EGIN_R>
ES LYS A 135

>  <REMARK>
  4 active torsions:
  status: ('A' for Active; 'I' for Inactive)
    5  A    between atoms: CA   and  CB  
    6  A    between atoms: CB   and  CG  
    7  A    between atoms: CG   and  CD  
    8  A    between atoms: CD   and  CE  

$$$$
