ligand_59_pose_18_2HRL.pdbqt
 OpenBabel07062320523D

 52 53  0  0  1  0  0  0  0  0999 V2000
   28.4880   33.8000   15.3340 N   0  0  0  0  0  0  0  0  0  0  0  0
   27.6560   34.3390   16.3720 C   0  0  0  0  0  0  0  0  0  0  0  0
   28.2440   34.7420   17.4000 O   0  0  0  0  0  0  0  0  0  0  0  0
   27.9590   33.4890   14.4900 H   0  0  0  0  0  0  0  0  0  0  0  0
   29.9160   33.7440   15.4800 C   0  0  0  0  0  0  0  0  0  0  0  0
   30.3670   32.2930   15.5240 C   0  0  2  0  0  0  0  0  0  0  0  0
   30.7680   32.0250   16.9450 C   0  0  2  0  0  0  0  0  0  0  0  0
   29.9180   31.0670   17.7290 C   0  0  2  0  0  0  0  0  0  0  0  0
   27.5860   30.8220   17.9960 C   0  0  2  0  0  0  0  0  0  0  0  0
   27.7130   30.5360   19.4720 C   0  0  0  0  0  0  0  0  0  0  0  0
   28.6400   31.5100   17.5030 O   0  0  0  0  0  0  0  0  0  0  0  0
   28.8880   31.3790   19.9310 C   0  0  1  0  0  0  0  0  0  0  0  0
   30.1630   30.9380   19.1700 C   0  0  1  0  0  0  0  0  0  0  0  0
   26.4090   31.6240   17.8730 O   0  0  0  0  0  0  0  0  0  0  0  0
   25.6640   31.1810   18.3530 H   0  0  0  0  0  0  0  0  0  0  0  0
   27.3280   29.6180   17.1790 C   0  0  0  0  0  0  0  0  0  0  0  0
   26.7830   29.7360   16.0650 O   0  0  0  0  0  0  0  0  0  0  0  0
   27.6850   28.3600   17.6260 O   0  0  0  0  0  0  0  0  0  0  0  0
   27.2930   27.5470   17.1670 H   0  0  0  0  0  0  0  0  0  0  0  0
   28.6600   32.7260   19.8040 O   0  0  0  0  0  0  0  0  0  0  0  0
   27.7470   32.8750   19.4230 H   0  0  0  0  0  0  0  0  0  0  0  0
   30.4190   29.6200   19.6540 N   0  0  0  0  0  0  0  0  0  0  0  0
   31.4330   29.3450   20.5860 C   0  0  0  0  0  0  0  0  0  0  0  0
   29.8400   28.8380   19.3010 H   0  0  0  0  0  0  0  0  0  0  0  0
   31.6980   27.9750   21.0890 C   0  0  0  0  0  0  0  0  0  0  0  0
   32.1380   30.2810   21.0110 O   0  0  0  0  0  0  0  0  0  0  0  0
   30.7010   33.2450   17.6420 O   0  0  0  0  0  0  0  0  0  0  0  0
   31.6070   33.5790   17.8830 H   0  0  0  0  0  0  0  0  0  0  0  0
   31.5260   32.2950   14.7000 O   0  0  0  0  0  0  0  0  0  0  0  0
   31.9770   33.1480   14.8060 H   0  0  0  0  0  0  0  0  0  0  0  0
   26.2940   34.4230   16.2750 O   0  0  0  0  0  0  0  0  0  0  0  0
   25.6110   35.4220   15.5800 C   0  0  0  0  0  0  0  0  0  0  0  0
   25.4470   35.1380   14.1330 C   0  0  0  0  0  0  0  0  0  0  0  0
   24.3160   35.4890   13.3900 C   0  0  0  0  0  0  0  0  0  0  0  0
   26.2470   34.5400   13.2590 N   0  0  0  0  0  0  0  0  0  0  0  0
   24.4860   35.0900   12.1300 N   0  0  0  0  0  0  0  0  0  0  0  0
   25.6610   34.5130   12.0600 N   0  0  0  0  0  0  0  0  0  0  0  0
   23.5470   35.2560   11.0570 C   0  0  0  0  0  0  0  0  0  0  0  0
   23.9270   35.5660    9.7680 C   0  0  0  0  0  0  0  0  0  0  0  0
   22.2320   35.1200   11.2940 N   0  0  0  0  0  0  0  0  0  0  0  0
   23.0360   35.7370    8.7430 C   0  0  0  0  0  0  0  0  0  0  0  0
   21.3220   35.2780   10.3220 C   0  0  0  0  0  0  0  0  0  0  0  0
   21.6900   35.5910    9.0180 C   0  0  0  0  0  0  0  0  0  0  0  0
   20.6360   35.7530    7.9750 C   0  0  0  0  0  0  0  0  0  0  0  0
   20.2900   34.5010    7.4860 O   0  0  0  0  0  0  0  0  0  0  0  0
   20.5680   33.7990    8.1280 H   0  0  0  0  0  0  0  0  0  0  0  0
   29.8670   25.5550   16.9770 C   0  0  0  0  0  0  0  0  0  0  0  0
   28.3450   25.7220   17.0260 C   0  0  0  0  0  0  0  0  0  0  0  0
   27.6010   24.4030   16.8880 C   0  0  0  0  0  0  0  0  0  0  0  0
   26.5380   24.2390   17.9390 C   0  0  0  0  0  0  0  0  0  0  0  0
   25.1610   24.3530   17.2920 C   0  0  0  0  0  0  0  0  0  0  0  0
   24.4900   23.0330   17.2660 N   0  0  0  0  0  0  0  0  0  0  0  0
  1  5  1  0  0  0  0
  1  2  1  0  0  0  0
  2  3  2  0  0  0  0
  4  1  1  0  0  0  0
  6  5  1  1  0  0  0
  6  7  1  0  0  0  0
  7 27  1  1  0  0  0
  8  7  1  1  0  0  0
  8 13  1  0  0  0  0
  9 16  1  6  0  0  0
  9 10  1  0  0  0  0
 10 12  1  0  0  0  0
 11  8  1  0  0  0  0
 11  9  1  0  0  0  0
 12 20  1  6  0  0  0
 13 22  1  6  0  0  0
 13 12  1  0  0  0  0
 14  9  1  0  0  0  0
 14 15  1  0  0  0  0
 16 18  1  0  0  0  0
 17 16  2  0  0  0  0
 19 18  1  0  0  0  0
 21 20  1  0  0  0  0
 22 23  1  0  0  0  0
 23 26  2  0  0  0  0
 23 25  1  0  0  0  0
 24 22  1  0  0  0  0
 27 28  1  0  0  0  0
 29 30  1  0  0  0  0
 29  6  1  0  0  0  0
 31  2  1  0  0  0  0
 32 31  1  0  0  0  0
 33 32  1  0  0  0  0
 34 33  2  0  0  0  0
 35 33  1  0  0  0  0
 36 34  1  0  0  0  0
 37 36  1  0  0  0  0
 37 35  2  0  0  0  0
 38 40  1  0  0  0  0
 38 36  1  0  0  0  0
 39 38  2  0  0  0  0
 41 43  2  0  0  0  0
 41 39  1  0  0  0  0
 42 40  2  0  0  0  0
 43 42  1  0  0  0  0
 44 43  1  0  0  0  0
 45 44  1  0  0  0  0
 45 46  1  0  0  0  0
 47 48  1  0  0  0  0
 49 48  1  0  0  0  0
 49 50  1  0  0  0  0
 51 50  1  0  0  0  0
 52 51  1  0  0  0  0
M  END
>  <REMARK>
 VINA RESULT:    -4.760      3.924      6.449
 INTER + INTRA:         -14.391
 INTER:                  -8.555
 INTRA:                  -5.836
 UNBOUND:                -5.735
 SMILES CC(=O)N[C@@H]1[C@@H](O)C[C@](O)(C(=O)O)O[C@H]1C(O)[C@H](O)CNC(=O)OCc1cn(-c2ccc(CO)cn2)nn1
 SMILES IDX 21 1 22 2 23 3 20 5 18 6 16 7 15 8 9 9 8 10 14 11 6 12 5 13
 SMILES IDX 10 14 11 16 12 17 13 18 7 20 4 22 2 23 1 25 3 26 17 27 19 29
 SMILES IDX 24 31 25 32 26 33 27 34 38 35 28 36 37 37 29 38 30 39 36 40
 SMILES IDX 31 41 35 42 32 43 33 44 34 45
 H PARENT 21 4 10 15 13 19 7 21 4 24 17 28 19 30 34 46
 Flexibility Score: inf
  4 active torsions:
  status: ('A' for Active; 'I' for Inactive)
    1  A    between atoms: CA   and  CB  
    2  A    between atoms: CB   and  CG  
    3  A    between atoms: CG   and  CD  
    4  A    between atoms: CD   and  CE  

>  <TORSDO>
F 17

>  <BEGIN_>
RES LYS A 131

$$$$
ligand_59_pose_18_2HRL.pdbqt
 OpenBabel07062320523D

  6  5  0  0  0  0  0  0  0  0999 V2000
   33.1930   34.6630    9.2900 C   0  0  0  0  0  0  0  0  0  0  0  0
   32.0600   35.3600   10.0340 C   0  0  0  0  0  0  0  0  0  0  0  0
   30.8490   35.6230    9.1770 C   0  0  0  0  0  0  0  0  0  0  0  0
   30.2360   34.3160    8.6990 C   0  0  0  0  0  0  0  0  0  0  0  0
   28.7500   34.4860    8.4430 C   0  0  0  0  0  0  0  0  0  0  0  0
   28.5060   35.2670    7.1990 N   0  0  0  0  0  0  0  0  0  0  0  0
  1  2  1  0  0  0  0
  3  2  1  0  0  0  0
  4  3  1  0  0  0  0
  5  4  1  0  0  0  0
  6  5  1  0  0  0  0
M  END
>  <EGIN_R>
ES LYS A 135

>  <REMARK>
  4 active torsions:
  status: ('A' for Active; 'I' for Inactive)
    5  A    between atoms: CA   and  CB  
    6  A    between atoms: CB   and  CG  
    7  A    between atoms: CG   and  CD  
    8  A    between atoms: CD   and  CE  

$$$$
