ligand_50_pose_13_2HRL.pdbqt
 OpenBabel07062320523D

 50 50  0  0  1  0  0  0  0  0999 V2000
   30.0110   38.7480    5.9640 N   0  0  0  0  0  0  0  0  0  0  0  0
   30.4880   39.8170    6.7640 C   0  0  0  0  0  0  0  0  0  0  0  0
   30.1410   39.9400    7.9510 O   0  0  0  0  0  0  0  0  0  0  0  0
   30.3650   38.7310    4.9600 H   0  0  0  0  0  0  0  0  0  0  0  0
   29.1160   37.7700    6.4800 C   0  0  0  0  0  0  0  0  0  0  0  0
   27.6920   37.9320    5.9950 C   0  0  2  0  0  0  0  0  0  0  0  0
   26.8370   38.1410    7.2380 C   0  0  1  0  0  0  0  0  0  0  0  0
   25.9430   36.9190    7.4750 C   0  0  2  0  0  0  0  0  0  0  0  0
   24.0880   37.3010    8.8210 C   0  0  2  0  0  0  0  0  0  0  0  0
   23.9890   35.8280    9.1680 C   0  0  0  0  0  0  0  0  0  0  0  0
   24.6590   37.3760    7.5740 O   0  0  0  0  0  0  0  0  0  0  0  0
   25.3770   35.3120    9.3250 C   0  0  1  0  0  0  0  0  0  0  0  0
   26.4400   36.1400    8.6520 C   0  0  1  0  0  0  0  0  0  0  0  0
   24.8510   37.8980    9.8230 O   0  0  0  0  0  0  0  0  0  0  0  0
   25.6240   37.3500   10.0880 H   0  0  0  0  0  0  0  0  0  0  0  0
   22.7470   37.9370    8.7690 C   0  0  0  0  0  0  0  0  0  0  0  0
   21.9640   37.7690    9.7390 O   0  0  0  0  0  0  0  0  0  0  0  0
   22.3830   38.6890    7.6780 O   0  0  0  0  0  0  0  0  0  0  0  0
   22.6730   38.4190    6.7430 H   0  0  0  0  0  0  0  0  0  0  0  0
   25.6730   35.2920   10.6940 O   0  0  0  0  0  0  0  0  0  0  0  0
   26.1110   36.1260   10.9440 H   0  0  0  0  0  0  0  0  0  0  0  0
   27.4800   35.2190    8.2480 N   0  0  0  0  0  0  0  0  0  0  0  0
   28.7440   35.2720    8.8920 C   0  0  0  0  0  0  0  0  0  0  0  0
   27.3440   34.5060    7.4950 H   0  0  0  0  0  0  0  0  0  0  0  0
   29.8630   34.3400    8.5130 C   0  0  0  0  0  0  0  0  0  0  0  0
   29.0110   36.0910    9.8080 O   0  0  0  0  0  0  0  0  0  0  0  0
   27.6500   38.4180    8.3100 O   0  0  0  0  0  0  0  0  0  0  0  0
   28.0560   39.3270    8.2400 H   0  0  0  0  0  0  0  0  0  0  0  0
   27.2830   36.7990    5.2930 O   0  0  0  0  0  0  0  0  0  0  0  0
   26.3710   36.9620    4.9830 H   0  0  0  0  0  0  0  0  0  0  0  0
   31.3730   40.7720    6.2390 O   0  0  0  0  0  0  0  0  0  0  0  0
   31.8700   40.5750    4.9470 C   0  0  0  0  0  0  0  0  0  0  0  0
   33.2590   40.0500    4.9600 C   0  0  0  0  0  0  0  0  0  0  0  0
   34.0270   39.7330    3.8770 C   0  0  0  0  0  0  0  0  0  0  0  0
   34.0000   39.7960    6.0410 N   0  0  0  0  0  0  0  0  0  0  0  0
   35.2200   39.2940    4.3580 N   0  0  0  0  0  0  0  0  0  0  0  0
   35.1890   39.3380    5.6830 N   0  0  0  0  0  0  0  0  0  0  0  0
   36.3390   38.8510    3.5270 C   0  0  0  0  0  0  0  0  0  0  0  0
   37.3180   38.1740    4.4650 C   0  0  1  0  0  0  0  0  0  0  0  0
   36.7070   37.0720    5.0520 O   0  0  0  0  0  0  0  0  0  0  0  0
   35.8330   36.9300    4.6000 H   0  0  0  0  0  0  0  0  0  0  0  0
   38.5610   37.7210    3.6910 C   0  0  0  0  0  0  0  0  0  0  0  0
   38.6970   36.3370    3.8090 O   0  0  0  0  0  0  0  0  0  0  0  0
   37.8000   35.9340    4.0110 H   0  0  0  0  0  0  0  0  0  0  0  0
   29.8670   25.5550   16.9770 C   0  0  0  0  0  0  0  0  0  0  0  0
   28.3450   25.7220   17.0260 C   0  0  0  0  0  0  0  0  0  0  0  0
   27.5990   24.4230   16.7620 C   0  0  0  0  0  0  0  0  0  0  0  0
   26.4930   24.1930   17.7550 C   0  0  0  0  0  0  0  0  0  0  0  0
   25.8860   25.5320   18.1590 C   0  0  0  0  0  0  0  0  0  0  0  0
   25.8180   25.6470   19.6350 N   0  0  0  0  0  0  0  0  0  0  0  0
  1  5  1  0  0  0  0
  1  2  1  0  0  0  0
  2  3  2  0  0  0  0
  4  1  1  0  0  0  0
  6  5  1  1  0  0  0
  6  7  1  0  0  0  0
  7 27  1  1  0  0  0
  8  7  1  1  0  0  0
  8 11  1  0  0  0  0
  8 13  1  0  0  0  0
  9 16  1  6  0  0  0
  9 10  1  0  0  0  0
  9 14  1  0  0  0  0
 10 12  1  0  0  0  0
 11  9  1  0  0  0  0
 12 20  1  1  0  0  0
 13 22  1  6  0  0  0
 13 12  1  0  0  0  0
 14 15  1  0  0  0  0
 16 17  2  0  0  0  0
 18 16  1  0  0  0  0
 19 18  1  0  0  0  0
 20 21  1  0  0  0  0
 22 23  1  0  0  0  0
 23 26  2  0  0  0  0
 24 22  1  0  0  0  0
 25 23  1  0  0  0  0
 28 27  1  0  0  0  0
 29  6  1  0  0  0  0
 30 29  1  0  0  0  0
 31  2  1  0  0  0  0
 32 33  1  0  0  0  0
 32 31  1  0  0  0  0
 33 35  1  0  0  0  0
 34 36  1  0  0  0  0
 34 33  2  0  0  0  0
 36 37  1  0  0  0  0
 37 35  2  0  0  0  0
 38 36  1  0  0  0  0
 39 38  1  6  0  0  0
 39 40  1  0  0  0  0
 41 40  1  0  0  0  0
 42 43  1  0  0  0  0
 42 39  1  0  0  0  0
 43 44  1  0  0  0  0
 45 46  1  0  0  0  0
 47 46  1  0  0  0  0
 47 48  1  0  0  0  0
 48 49  1  0  0  0  0
 49 50  1  0  0  0  0
M  END
>  <REMARK>
 VINA RESULT:    -4.553      7.694     13.973
 INTER + INTRA:         -14.156
 INTER:                 -10.181
 INTRA:                  -3.975
 UNBOUND:                -5.477
 SMILES CC(=O)N[C@@H]1[C@@H](O)C[C@](O)(C(=O)O)O[C@H]1C(O)[C@H](O)CNC(=O)OCc1cn(CC(O)CO)nn1
 SMILES IDX 21 1 22 2 23 3 20 5 18 6 16 7 15 8 9 9 8 10 14 11 6 12 5 13
 SMILES IDX 10 14 11 16 12 17 13 18 7 20 4 22 2 23 1 25 3 26 17 27 19 29
 SMILES IDX 24 31 25 32 26 33 27 34 35 35 28 36 34 37 29 38 30 39 31 40
 SMILES IDX 32 42 33 43
 H PARENT 21 4 10 15 13 19 7 21 4 24 17 28 19 30 31 41 33 44
 Flexibility Score: inf
  4 active torsions:
  status: ('A' for Active; 'I' for Inactive)
    1  A    between atoms: CA   and  CB  
    2  A    between atoms: CB   and  CG  
    3  A    between atoms: CG   and  CD  
    4  A    between atoms: CD   and  CE  

>  <TORSDO>
F 19

>  <BEGIN_>
RES LYS A 131

$$$$
ligand_50_pose_13_2HRL.pdbqt
 OpenBabel07062320523D

  6  5  0  0  0  0  0  0  0  0999 V2000
   33.1930   34.6630    9.2900 C   0  0  0  0  0  0  0  0  0  0  0  0
   32.0600   35.3600   10.0340 C   0  0  0  0  0  0  0  0  0  0  0  0
   32.5080   36.0690   11.2860 C   0  0  0  0  0  0  0  0  0  0  0  0
   31.4360   35.9870   12.3620 C   0  0  0  0  0  0  0  0  0  0  0  0
   31.2460   37.3360   13.0280 C   0  0  0  0  0  0  0  0  0  0  0  0
   31.4240   38.4470   12.0520 N   0  0  0  0  0  0  0  0  0  0  0  0
  1  2  1  0  0  0  0
  2  3  1  0  0  0  0
  3  4  1  0  0  0  0
  4  5  1  0  0  0  0
  6  5  1  0  0  0  0
M  END
>  <EGIN_R>
ES LYS A 135

>  <REMARK>
  4 active torsions:
  status: ('A' for Active; 'I' for Inactive)
    5  A    between atoms: CA   and  CB  
    6  A    between atoms: CB   and  CG  
    7  A    between atoms: CG   and  CD  
    8  A    between atoms: CD   and  CE  

$$$$
