ligand_44_pose_6_2HRL.pdbqt
 OpenBabel07062320523D

 51 52  0  0  1  0  0  0  0  0999 V2000
   29.5160   30.5970   17.3700 N   0  0  0  0  0  0  0  0  0  0  0  0
   28.4690   30.4510   18.3130 C   0  0  0  0  0  0  0  0  0  0  0  0
   27.2520   30.4010   18.0520 O   0  0  0  0  0  0  0  0  0  0  0  0
   30.5290   30.6220   17.7080 H   0  0  0  0  0  0  0  0  0  0  0  0
   29.2170   30.7100   15.9770 C   0  0  0  0  0  0  0  0  0  0  0  0
   28.9570   32.1130   15.4930 C   0  0  2  0  0  0  0  0  0  0  0  0
   30.1770   32.8110   15.0120 C   0  0  1  0  0  0  0  0  0  0  0  0
   30.4210   34.2020   15.4460 C   0  0  2  0  0  0  0  0  0  0  0  0
   32.2270   35.1130   14.3370 C   0  0  2  0  0  0  0  0  0  0  0  0
   32.3830   36.2750   15.2900 C   0  0  0  0  0  0  0  0  0  0  0  0
   30.8630   34.8700   14.2920 O   0  0  0  0  0  0  0  0  0  0  0  0
   31.9670   35.7830   16.6330 C   0  0  1  0  0  0  0  0  0  0  0  0
   31.2270   34.4600   16.6390 C   0  0  1  0  0  0  0  0  0  0  0  0
   32.9840   34.0700   14.8220 O   0  0  0  0  0  0  0  0  0  0  0  0
   32.5360   33.2030   14.8210 H   0  0  0  0  0  0  0  0  0  0  0  0
   32.6710   35.5680   12.9980 C   0  0  0  0  0  0  0  0  0  0  0  0
   32.1140   36.4960   12.3710 O   0  0  0  0  0  0  0  0  0  0  0  0
   33.7620   34.9120   12.4360 O   0  0  0  0  0  0  0  0  0  0  0  0
   34.2100   35.2150   11.5870 H   0  0  0  0  0  0  0  0  0  0  0  0
   33.1500   35.5790   17.3800 O   0  0  0  0  0  0  0  0  0  0  0  0
   33.7140   36.3780   17.3960 H   0  0  0  0  0  0  0  0  0  0  0  0
   30.3820   34.5870   17.8480 N   0  0  0  0  0  0  0  0  0  0  0  0
   30.3850   33.6500   18.8880 C   0  0  0  0  0  0  0  0  0  0  0  0
   29.7760   35.4420   17.8590 H   0  0  0  0  0  0  0  0  0  0  0  0
   29.4880   33.8660   20.0620 C   0  0  0  0  0  0  0  0  0  0  0  0
   31.1200   32.6530   18.8420 O   0  0  0  0  0  0  0  0  0  0  0  0
   31.2570   31.9440   15.0690 O   0  0  0  0  0  0  0  0  0  0  0  0
   30.9680   31.0790   15.4800 H   0  0  0  0  0  0  0  0  0  0  0  0
   28.1510   32.8720   16.3230 O   0  0  0  0  0  0  0  0  0  0  0  0
   28.6420   33.3370   17.0300 H   0  0  0  0  0  0  0  0  0  0  0  0
   28.8130   30.3490   19.6610 O   0  0  0  0  0  0  0  0  0  0  0  0
   29.5950   29.2820   20.1390 C   0  0  0  0  0  0  0  0  0  0  0  0
   30.8070   29.7550   20.8330 C   0  0  0  0  0  0  0  0  0  0  0  0
   30.9880   30.7770   21.7350 C   0  0  0  0  0  0  0  0  0  0  0  0
   32.0150   29.1780   20.6390 N   0  0  0  0  0  0  0  0  0  0  0  0
   32.3010   30.7890   22.0610 N   0  0  0  0  0  0  0  0  0  0  0  0
   32.8790   29.8160   21.3840 N   0  0  0  0  0  0  0  0  0  0  0  0
   32.9160   31.7170   22.9880 C   0  0  0  0  0  0  0  0  0  0  0  0
   32.8100   33.0870   22.3860 C   0  0  0  0  0  0  0  0  0  0  0  0
   31.9600   34.0160   22.9670 C   0  0  0  0  0  0  0  0  0  0  0  0
   33.5570   33.4020   21.2720 C   0  0  0  0  0  0  0  0  0  0  0  0
   31.8790   35.2610   22.4010 C   0  0  0  0  0  0  0  0  0  0  0  0
   33.4760   34.6690   20.6940 C   0  0  0  0  0  0  0  0  0  0  0  0
   32.6270   35.5700   21.2880 C   0  0  0  0  0  0  0  0  0  0  0  0
   32.4950   37.3160   20.5200 Br  0  0  0  0  0  0  0  0  0  0  0  0
   29.8670   25.5550   16.9770 C   0  0  0  0  0  0  0  0  0  0  0  0
   28.3450   25.7220   17.0260 C   0  0  0  0  0  0  0  0  0  0  0  0
   27.6020   24.3990   16.9170 C   0  0  0  0  0  0  0  0  0  0  0  0
   26.5910   24.2260   18.0170 C   0  0  0  0  0  0  0  0  0  0  0  0
   25.3360   25.0270   17.6850 C   0  0  0  0  0  0  0  0  0  0  0  0
   24.1290   24.1740   17.8070 N   0  0  0  0  0  0  0  0  0  0  0  0
  1  4  1  0  0  0  0
  1  2  1  0  0  0  0
  2 31  1  0  0  0  0
  3  2  2  0  0  0  0
  5  1  1  0  0  0  0
  6  5  1  1  0  0  0
  6 29  1  0  0  0  0
  7 27  1  1  0  0  0
  7  6  1  0  0  0  0
  8  7  1  6  0  0  0
  8 13  1  0  0  0  0
  9 16  1  6  0  0  0
  9 14  1  0  0  0  0
  9 10  1  0  0  0  0
 10 12  1  0  0  0  0
 11  9  1  0  0  0  0
 11  8  1  0  0  0  0
 12 13  1  0  0  0  0
 12 20  1  1  0  0  0
 13 22  1  1  0  0  0
 15 14  1  0  0  0  0
 17 16  2  0  0  0  0
 18 16  1  0  0  0  0
 19 18  1  0  0  0  0
 20 21  1  0  0  0  0
 22 24  1  0  0  0  0
 22 23  1  0  0  0  0
 23 25  1  0  0  0  0
 26 23  2  0  0  0  0
 27 28  1  0  0  0  0
 29 30  1  0  0  0  0
 31 32  1  0  0  0  0
 32 33  1  0  0  0  0
 33 34  2  0  0  0  0
 34 36  1  0  0  0  0
 35 33  1  0  0  0  0
 35 37  2  0  0  0  0
 36 38  1  0  0  0  0
 37 36  1  0  0  0  0
 39 40  2  0  0  0  0
 39 38  1  0  0  0  0
 41 39  1  0  0  0  0
 42 40  1  0  0  0  0
 43 41  2  0  0  0  0
 43 44  1  0  0  0  0
 44 42  2  0  0  0  0
 45 44  1  0  0  0  0
 46 47  1  0  0  0  0
 48 47  1  0  0  0  0
 48 49  1  0  0  0  0
 50 51  1  0  0  0  0
 50 49  1  0  0  0  0
M  END
>  <REMARK>
 VINA RESULT:    -4.684      4.423      7.389
 INTER + INTRA:         -14.779
 INTER:                  -7.910
 INTRA:                  -6.869
 UNBOUND:                -6.398
 SMILES CC(=O)N[C@@H]1[C@@H](O)C[C@](O)(C(=O)O)O[C@H]1C(O)[C@H](O)CNC(=O)OCc1cn(Cc2ccc(Br)cc2)nn1
 SMILES IDX 21 1 22 2 23 3 20 5 18 6 16 7 15 8 9 9 8 10 14 11 6 12 5 13
 SMILES IDX 10 14 11 16 12 17 13 18 7 20 4 22 2 23 1 25 3 26 17 27 19 29
 SMILES IDX 24 31 25 32 26 33 27 34 38 35 28 36 37 37 29 38 30 39 31 40
 SMILES IDX 36 41 32 42 35 43 33 44 34 45
 H PARENT 21 4 10 15 13 19 7 21 4 24 17 28 19 30
 Flexibility Score: inf
  4 active torsions:
  status: ('A' for Active; 'I' for Inactive)
    1  A    between atoms: CA   and  CB  
    2  A    between atoms: CB   and  CG  
    3  A    between atoms: CG   and  CD  
    4  A    between atoms: CD   and  CE  

>  <TORSDO>
F 16

>  <BEGIN_>
RES LYS A 131

$$$$
ligand_44_pose_6_2HRL.pdbqt
 OpenBabel07062320523D

  6  5  0  0  0  0  0  0  0  0999 V2000
   33.1930   34.6630    9.2900 C   0  0  0  0  0  0  0  0  0  0  0  0
   32.0600   35.3600   10.0340 C   0  0  0  0  0  0  0  0  0  0  0  0
   30.7840   35.4550    9.2370 C   0  0  0  0  0  0  0  0  0  0  0  0
   30.2060   34.0710    8.9830 C   0  0  0  0  0  0  0  0  0  0  0  0
   28.6930   34.0990    9.0890 C   0  0  0  0  0  0  0  0  0  0  0  0
   28.0920   34.8850    7.9770 N   0  0  0  0  0  0  0  0  0  0  0  0
  1  2  1  0  0  0  0
  3  2  1  0  0  0  0
  4  5  1  0  0  0  0
  4  3  1  0  0  0  0
  6  5  1  0  0  0  0
M  END
>  <EGIN_R>
ES LYS A 135

>  <REMARK>
  4 active torsions:
  status: ('A' for Active; 'I' for Inactive)
    5  A    between atoms: CA   and  CB  
    6  A    between atoms: CB   and  CG  
    7  A    between atoms: CG   and  CD  
    8  A    between atoms: CD   and  CE  

$$$$
