ligand_65_pose_1_2HRL.pdbqt
 OpenBabel07062320523D

 53 54  0  0  1  0  0  0  0  0999 V2000
   26.5270   28.5590   19.4440 N   0  0  0  0  0  0  0  0  0  0  0  0
   25.7250   28.6390   18.2890 C   0  0  0  0  0  0  0  0  0  0  0  0
   25.2500   27.6460   17.6950 O   0  0  0  0  0  0  0  0  0  0  0  0
   26.9100   29.4260   19.9270 H   0  0  0  0  0  0  0  0  0  0  0  0
   26.8510   27.2640   20.0040 C   0  0  0  0  0  0  0  0  0  0  0  0
   27.4230   27.4590   21.3730 C   0  0  2  0  0  0  0  0  0  0  0  0
   28.9370   27.5050   21.3060 C   0  0  2  0  0  0  0  0  0  0  0  0
   29.3800   28.8910   21.7500 C   0  0  2  0  0  0  0  0  0  0  0  0
   29.6000   30.4260   19.9760 C   0  0  2  0  0  0  0  0  0  0  0  0
   31.0890   30.2790   19.9810 C   0  0  0  0  0  0  0  0  0  0  0  0
   28.8880   29.7930   20.9030 O   0  0  0  0  0  0  0  0  0  0  0  0
   31.5280   30.1370   21.4330 C   0  0  1  0  0  0  0  0  0  0  0  0
   30.8790   28.8280   21.8810 C   0  0  1  0  0  0  0  0  0  0  0  0
   29.1690   29.9790   18.7040 O   0  0  0  0  0  0  0  0  0  0  0  0
   29.8400   29.3960   18.2810 H   0  0  0  0  0  0  0  0  0  0  0  0
   29.3020   31.8800   20.0270 C   0  0  0  0  0  0  0  0  0  0  0  0
   28.2640   32.3030   20.5970 O   0  0  0  0  0  0  0  0  0  0  0  0
   30.1390   32.8240   19.4560 O   0  0  0  0  0  0  0  0  0  0  0  0
   30.0800   33.0910   18.4710 H   0  0  0  0  0  0  0  0  0  0  0  0
   32.8980   29.9980   21.5430 O   0  0  0  0  0  0  0  0  0  0  0  0
   33.2610   30.8790   21.8450 H   0  0  0  0  0  0  0  0  0  0  0  0
   31.2730   28.4910   23.2310 N   0  0  0  0  0  0  0  0  0  0  0  0
   32.3050   27.5520   23.4800 C   0  0  0  0  0  0  0  0  0  0  0  0
   30.7520   28.9780   23.9960 H   0  0  0  0  0  0  0  0  0  0  0  0
   32.6600   27.2510   24.8840 C   0  0  0  0  0  0  0  0  0  0  0  0
   32.9210   26.9760   22.5560 O   0  0  0  0  0  0  0  0  0  0  0  0
   29.3270   27.3120   19.9540 O   0  0  0  0  0  0  0  0  0  0  0  0
   30.2290   27.7400   19.9020 H   0  0  0  0  0  0  0  0  0  0  0  0
   26.9860   26.4160   22.2020 O   0  0  0  0  0  0  0  0  0  0  0  0
   27.5710   25.6410   22.1320 H   0  0  0  0  0  0  0  0  0  0  0  0
   25.4320   29.9090   17.7630 O   0  0  0  0  0  0  0  0  0  0  0  0
   25.5890   30.0910   16.3720 C   0  0  0  0  0  0  0  0  0  0  0  0
   27.0210   30.4400   16.0930 C   0  0  0  0  0  0  0  0  0  0  0  0
   27.5740   31.7040   16.0020 C   0  0  0  0  0  0  0  0  0  0  0  0
   28.0580   29.6000   15.8740 N   0  0  0  0  0  0  0  0  0  0  0  0
   28.8930   31.6080   15.7400 N   0  0  0  0  0  0  0  0  0  0  0  0
   29.1550   30.3220   15.6680 N   0  0  0  0  0  0  0  0  0  0  0  0
   29.8100   32.6940   15.5750 C   0  0  0  0  0  0  0  0  0  0  0  0
   30.5470   33.1630   16.6000 N   0  0  0  0  0  0  0  0  0  0  0  0
   29.9680   33.2900   14.3770 N   0  0  0  0  0  0  0  0  0  0  0  0
   31.4170   34.1780   16.4880 C   0  0  0  0  0  0  0  0  0  0  0  0
   30.8320   34.3220   14.1990 C   0  0  0  0  0  0  0  0  0  0  0  0
   31.5360   34.7430   15.2550 N   0  0  0  0  0  0  0  0  0  0  0  0
   31.0150   34.9870   12.8820 C   0  0  0  0  0  0  0  0  0  0  0  0
   32.1900   34.6710   17.5590 N   0  0  0  0  0  0  0  0  0  0  0  0
   33.0730   35.1650   17.3730 H   0  0  0  0  0  0  0  0  0  0  0  0
   31.8680   34.5350   18.5270 H   0  0  0  0  0  0  0  0  0  0  0  0
   29.8670   25.5550   16.9770 C   0  0  0  0  0  0  0  0  0  0  0  0
   28.3450   25.7220   17.0260 C   0  0  0  0  0  0  0  0  0  0  0  0
   27.6010   24.4020   16.8920 C   0  0  0  0  0  0  0  0  0  0  0  0
   26.6600   24.1630   18.0410 C   0  0  0  0  0  0  0  0  0  0  0  0
   25.2230   24.1600   17.5290 C   0  0  0  0  0  0  0  0  0  0  0  0
   24.7360   22.7710   17.3590 N   0  0  0  0  0  0  0  0  0  0  0  0
  1  4  1  0  0  0  0
  1  5  1  0  0  0  0
  2  1  1  0  0  0  0
  3  2  2  0  0  0  0
  6  5  1  6  0  0  0
  6 29  1  0  0  0  0
  7 27  1  6  0  0  0
  7  6  1  0  0  0  0
  8  7  1  6  0  0  0
  8 13  1  0  0  0  0
  9 14  1  6  0  0  0
  9 10  1  0  0  0  0
  9 16  1  0  0  0  0
  9 11  1  0  0  0  0
 10 12  1  0  0  0  0
 11  8  1  0  0  0  0
 12 20  1  6  0  0  0
 12 13  1  0  0  0  0
 13 22  1  1  0  0  0
 15 14  1  0  0  0  0
 16 17  2  0  0  0  0
 18 16  1  0  0  0  0
 19 18  1  0  0  0  0
 20 21  1  0  0  0  0
 22 23  1  0  0  0  0
 22 24  1  0  0  0  0
 23 25  1  0  0  0  0
 26 23  2  0  0  0  0
 28 27  1  0  0  0  0
 30 29  1  0  0  0  0
 31  2  1  0  0  0  0
 32 31  1  0  0  0  0
 33 32  1  0  0  0  0
 34 33  2  0  0  0  0
 35 33  1  0  0  0  0
 36 34  1  0  0  0  0
 37 36  1  0  0  0  0
 37 35  2  0  0  0  0
 38 36  1  0  0  0  0
 38 39  2  0  0  0  0
 40 38  1  0  0  0  0
 41 39  2  0  0  0  0
 41 45  1  0  0  0  0
 42 40  2  0  0  0  0
 42 43  1  0  0  0  0
 43 41  1  0  0  0  0
 44 42  1  0  0  0  0
 45 47  1  0  0  0  0
 46 45  1  0  0  0  0
 48 49  1  0  0  0  0
 50 49  1  0  0  0  0
 50 51  1  0  0  0  0
 52 51  1  0  0  0  0
 53 52  1  0  0  0  0
M  END
>  <REMARK>
 VINA RESULT:    -5.445      1.393      2.057
 INTER + INTRA:         -14.717
 INTER:                  -8.024
 INTRA:                  -6.693
 UNBOUND:                -5.134
 SMILES CC(=O)N[C@@H]1[C@@H](O)C[C@](O)(C(=O)O)O[C@H]1C(O)[C@H](O)CNC(=O)OCc1cn(-c2nc(C)nc(N)n2)nn1
 SMILES IDX 21 1 22 2 23 3 20 5 18 6 16 7 15 8 9 9 8 10 14 11 6 12 5 13
 SMILES IDX 10 14 11 16 12 17 13 18 7 20 4 22 2 23 1 25 3 26 17 27 19 29
 SMILES IDX 24 31 25 32 26 33 27 34 38 35 28 36 37 37 29 38 36 39 30 40
 SMILES IDX 34 41 31 42 33 43 32 44 35 45
 H PARENT 21 4 10 15 13 19 7 21 4 24 17 28 19 30 35 46 35 47
 Flexibility Score: inf
  4 active torsions:
  status: ('A' for Active; 'I' for Inactive)
    1  A    between atoms: CA   and  CB  
    2  A    between atoms: CB   and  CG  
    3  A    between atoms: CG   and  CD  
    4  A    between atoms: CD   and  CE  

>  <TORSDO>
F 16

>  <BEGIN_>
RES LYS A 131

$$$$
ligand_65_pose_1_2HRL.pdbqt
 OpenBabel07062320523D

  6  5  0  0  0  0  0  0  0  0999 V2000
   33.1930   34.6630    9.2900 C   0  0  0  0  0  0  0  0  0  0  0  0
   32.0600   35.3600   10.0340 C   0  0  0  0  0  0  0  0  0  0  0  0
   30.7990   35.4960    9.2210 C   0  0  0  0  0  0  0  0  0  0  0  0
   30.1010   34.1510    9.0850 C   0  0  0  0  0  0  0  0  0  0  0  0
   28.6480   34.3430    8.6910 C   0  0  0  0  0  0  0  0  0  0  0  0
   27.7400   33.6170    9.6210 N   0  0  0  0  0  0  0  0  0  0  0  0
  1  2  1  0  0  0  0
  3  2  1  0  0  0  0
  4  3  1  0  0  0  0
  5  4  1  0  0  0  0
  5  6  1  0  0  0  0
M  END
>  <EGIN_R>
ES LYS A 135

>  <REMARK>
  4 active torsions:
  status: ('A' for Active; 'I' for Inactive)
    5  A    between atoms: CA   and  CB  
    6  A    between atoms: CB   and  CG  
    7  A    between atoms: CG   and  CD  
    8  A    between atoms: CD   and  CE  

$$$$
