ligand_20_pose_6_2HRL.pdbqt
 OpenBabel07062320523D

 53 55  0  0  1  0  0  0  0  0999 V2000
   29.2340   37.6760    5.2160 C   0  0  0  0  0  0  0  0  0  0  0  0
   28.7590   36.7100    6.2110 C   0  0  2  0  0  0  0  0  0  0  0  0
   27.2600   36.9290    6.5180 C   0  0  1  0  0  0  0  0  0  0  0  0
   27.0160   37.7110    7.7330 C   0  0  2  0  0  0  0  0  0  0  0  0
   25.4520   36.5150    8.9950 C   0  0  2  0  0  0  0  0  0  0  0  0
   24.4050   37.1590    8.1310 C   0  0  0  0  0  0  0  0  0  0  0  0
   26.7010   37.0500    8.8830 O   0  0  0  0  0  0  0  0  0  0  0  0
   24.6560   38.5990    7.8510 C   0  0  1  0  0  0  0  0  0  0  0  0
   26.0730   38.8930    7.4730 C   0  0  1  0  0  0  0  0  0  0  0  0
   25.4960   35.1490    8.7230 O   0  0  0  0  0  0  0  0  0  0  0  0
   25.6000   34.6070    9.5430 H   0  0  0  0  0  0  0  0  0  0  0  0
   25.0140   36.6850   10.4000 C   0  0  0  0  0  0  0  0  0  0  0  0
   25.6280   37.4580   11.1540 O   0  0  0  0  0  0  0  0  0  0  0  0
   23.9240   35.9840   10.8690 O   0  0  0  0  0  0  0  0  0  0  0  0
   22.9570   36.1830   10.5760 H   0  0  0  0  0  0  0  0  0  0  0  0
   23.7630   39.0050    6.8420 O   0  0  0  0  0  0  0  0  0  0  0  0
   23.1370   39.6290    7.2820 H   0  0  0  0  0  0  0  0  0  0  0  0
   26.5710   40.1150    8.0470 N   0  0  0  0  0  0  0  0  0  0  0  0
   26.2170   41.3940    7.5390 C   0  0  0  0  0  0  0  0  0  0  0  0
   27.2290   40.0790    8.8820 H   0  0  0  0  0  0  0  0  0  0  0  0
   26.7540   42.6190    8.1620 C   0  0  0  0  0  0  0  0  0  0  0  0
   25.4400   41.4560    6.5520 O   0  0  0  0  0  0  0  0  0  0  0  0
   26.8950   37.7870    5.4190 O   0  0  0  0  0  0  0  0  0  0  0  0
   26.1570   38.3820    5.6860 H   0  0  0  0  0  0  0  0  0  0  0  0
   29.4120   37.0900    7.4450 O   0  0  0  0  0  0  0  0  0  0  0  0
   29.5530   36.2720    7.9970 H   0  0  0  0  0  0  0  0  0  0  0  0
   29.9980   38.7870    5.7120 N   0  0  0  0  0  0  0  0  0  0  0  0
   29.4930   40.1140    5.6980 C   0  0  0  0  0  0  0  0  0  0  0  0
   30.9240   38.6360    6.1410 H   0  0  0  0  0  0  0  0  0  0  0  0
   28.3400   40.3060    5.2330 O   0  0  0  0  0  0  0  0  0  0  0  0
   30.1950   41.2020    6.1620 O   0  0  0  0  0  0  0  0  0  0  0  0
   30.1830   41.6570    7.5010 C   0  0  0  0  0  0  0  0  0  0  0  0
   30.7180   40.5490    8.3630 C   0  0  0  0  0  0  0  0  0  0  0  0
   30.1430   39.9810    9.4790 C   0  0  0  0  0  0  0  0  0  0  0  0
   31.8960   39.8850    8.1990 N   0  0  0  0  0  0  0  0  0  0  0  0
   30.9990   39.0150    9.9210 N   0  0  0  0  0  0  0  0  0  0  0  0
   32.0530   38.9800    9.1260 N   0  0  0  0  0  0  0  0  0  0  0  0
   30.7690   38.1960   11.0560 C   0  0  0  0  0  0  0  0  0  0  0  0
   31.8450   37.7460   11.7980 C   0  0  0  0  0  0  0  0  0  0  0  0
   29.5110   37.8140   11.4740 C   0  0  0  0  0  0  0  0  0  0  0  0
   31.6830   36.9480   12.9110 C   0  0  0  0  0  0  0  0  0  0  0  0
   29.3280   37.0240   12.5720 C   0  0  0  0  0  0  0  0  0  0  0  0
   30.4140   36.5720   13.3190 C   0  0  0  0  0  0  0  0  0  0  0  0
   28.2190   36.5040   13.1980 C   0  0  0  0  0  0  0  0  0  0  0  0
   29.9500   35.8230   14.3310 N   0  0  0  0  0  0  0  0  0  0  0  0
   28.6390   35.7740   14.2720 N   0  0  0  0  0  0  0  0  0  0  0  0
   30.5420   35.3600   15.0450 H   0  0  0  0  0  0  0  0  0  0  0  0
   29.8670   25.5550   16.9770 C   0  0  0  0  0  0  0  0  0  0  0  0
   28.3450   25.7220   17.0260 C   0  0  0  0  0  0  0  0  0  0  0  0
   27.6010   24.4050   16.8680 C   0  0  0  0  0  0  0  0  0  0  0  0
   26.1480   24.5280   17.2350 C   0  0  0  0  0  0  0  0  0  0  0  0
   25.6750   23.2300   17.8830 C   0  0  0  0  0  0  0  0  0  0  0  0
   24.3870   22.7960   17.2940 N   0  0  0  0  0  0  0  0  0  0  0  0
  1 27  1  0  0  0  0
  2  1  1  6  0  0  0
  2  3  1  0  0  0  0
  2 25  1  0  0  0  0
  3 23  1  6  0  0  0
  4  3  1  6  0  0  0
  4  7  1  0  0  0  0
  5 10  1  6  0  0  0
  5 12  1  0  0  0  0
  6  5  1  0  0  0  0
  7  5  1  0  0  0  0
  8 16  1  6  0  0  0
  8  6  1  0  0  0  0
  9  4  1  0  0  0  0
  9  8  1  0  0  0  0
  9 18  1  1  0  0  0
 10 11  1  0  0  0  0
 12 14  1  0  0  0  0
 12 13  2  0  0  0  0
 15 14  1  0  0  0  0
 16 17  1  0  0  0  0
 18 20  1  0  0  0  0
 19 18  1  0  0  0  0
 19 21  1  0  0  0  0
 22 19  2  0  0  0  0
 23 24  1  0  0  0  0
 25 26  1  0  0  0  0
 27 29  1  0  0  0  0
 28 27  1  0  0  0  0
 28 31  1  0  0  0  0
 30 28  2  0  0  0  0
 31 32  1  0  0  0  0
 32 33  1  0  0  0  0
 33 34  2  0  0  0  0
 34 36  1  0  0  0  0
 35 33  1  0  0  0  0
 35 37  2  0  0  0  0
 36 38  1  0  0  0  0
 37 36  1  0  0  0  0
 38 40  2  0  0  0  0
 38 39  1  0  0  0  0
 39 41  2  0  0  0  0
 40 42  1  0  0  0  0
 41 43  1  0  0  0  0
 42 44  1  0  0  0  0
 42 43  2  0  0  0  0
 43 45  1  0  0  0  0
 44 46  2  0  0  0  0
 45 47  1  0  0  0  0
 46 45  1  0  0  0  0
 48 49  1  0  0  0  0
 50 49  1  0  0  0  0
 50 51  1  0  0  0  0
 51 52  1  0  0  0  0
 53 52  1  0  0  0  0
M  END
>  <REMARK>
 VINA RESULT:    -4.743      4.132      8.970
 INTER + INTRA:         -14.699
 INTER:                  -8.191
 INTRA:                  -6.508
 UNBOUND:                -6.490
 SMILES CC(=O)N[C@@H]1[C@@H](O)C[C@](O)(C(=O)O)O[C@H]1C(O)[C@H](O)CNC(=O)OCc1cn(-c2ccc3[nH]ncc3c2)nn1
 SMILES IDX 20 1 18 2 16 3 15 4 9 5 8 6 14 7 6 8 5 9 10 10 11 12 12 13
 SMILES IDX 13 14 7 16 4 18 2 19 1 21 3 22 17 23 19 25 21 27 22 28 23 30
 SMILES IDX 24 31 25 32 26 33 27 34 39 35 28 36 38 37 29 38 30 39 37 40
 SMILES IDX 31 41 36 42 32 43 35 44 33 45 34 46
 H PARENT 10 11 13 15 7 17 4 20 17 24 19 26 21 29 33 47
 Flexibility Score: inf
  4 active torsions:
  status: ('A' for Active; 'I' for Inactive)
    1  A    between atoms: CA   and  CB  
    2  A    between atoms: CB   and  CG  
    3  A    between atoms: CG   and  CD  
    4  A    between atoms: CD   and  CE  

>  <TORSDO>
F 15

>  <BEGIN_>
RES LYS A 131

$$$$
ligand_20_pose_6_2HRL.pdbqt
 OpenBabel07062320523D

  6  5  0  0  0  0  0  0  0  0999 V2000
   33.1930   34.6630    9.2900 C   0  0  0  0  0  0  0  0  0  0  0  0
   32.0600   35.3600   10.0340 C   0  0  0  0  0  0  0  0  0  0  0  0
   30.8450   34.4910   10.2310 C   0  0  0  0  0  0  0  0  0  0  0  0
   30.2460   34.0930    8.8910 C   0  0  0  0  0  0  0  0  0  0  0  0
   28.7310   34.0940    8.9630 C   0  0  0  0  0  0  0  0  0  0  0  0
   28.2610   34.2300   10.3690 N   0  0  0  0  0  0  0  0  0  0  0  0
  1  2  1  0  0  0  0
  2  3  1  0  0  0  0
  4  5  1  0  0  0  0
  4  3  1  0  0  0  0
  5  6  1  0  0  0  0
M  END
>  <EGIN_R>
ES LYS A 135

>  <REMARK>
  4 active torsions:
  status: ('A' for Active; 'I' for Inactive)
    5  A    between atoms: CA   and  CB  
    6  A    between atoms: CB   and  CG  
    7  A    between atoms: CG   and  CD  
    8  A    between atoms: CD   and  CE  

$$$$
