ligand_0_pose_15_2HRL.pdbqt
 OpenBabel07062320523D

 54 55  0  0  1  0  0  0  0  0999 V2000
   24.4640   34.6970   14.1510 N   0  0  0  0  0  0  0  0  0  0  0  0
   24.1160   33.7660   13.1370 C   0  0  0  0  0  0  0  0  0  0  0  0
   24.8340   32.7640   12.9640 O   0  0  0  0  0  0  0  0  0  0  0  0
   23.8110   35.5270   14.2440 H   0  0  0  0  0  0  0  0  0  0  0  0
   25.6080   34.5780   15.0210 C   0  0  0  0  0  0  0  0  0  0  0  0
   26.5810   35.7340   14.8630 C   0  0  2  0  0  0  0  0  0  0  0  0
   27.6310   35.4450   13.8320 C   0  0  1  0  0  0  0  0  0  0  0  0
   29.0180   35.4080   14.3520 C   0  0  2  0  0  0  0  0  0  0  0  0
   31.1960   35.6120   13.5220 C   0  0  2  0  0  0  0  0  0  0  0  0
   31.5190   35.6140   14.9870 C   0  0  0  0  0  0  0  0  0  0  0  0
   29.8680   35.6250   13.2350 O   0  0  0  0  0  0  0  0  0  0  0  0
   30.7810   34.5900   15.7790 C   0  0  1  0  0  0  0  0  0  0  0  0
   29.5170   34.1940   15.0240 C   0  0  1  0  0  0  0  0  0  0  0  0
   31.8750   34.5370   12.9020 O   0  0  0  0  0  0  0  0  0  0  0  0
   31.3970   34.3360   12.0450 H   0  0  0  0  0  0  0  0  0  0  0  0
   31.8000   36.8490   12.9470 C   0  0  0  0  0  0  0  0  0  0  0  0
   32.5560   36.7280   11.9340 O   0  0  0  0  0  0  0  0  0  0  0  0
   31.5850   38.1130   13.4520 O   0  0  0  0  0  0  0  0  0  0  0  0
   32.3380   38.6500   13.8540 H   0  0  0  0  0  0  0  0  0  0  0  0
   31.6080   33.4980   15.9880 O   0  0  0  0  0  0  0  0  0  0  0  0
   31.1220   32.6380   16.0480 H   0  0  0  0  0  0  0  0  0  0  0  0
   28.6300   33.4200   15.8040 N   0  0  0  0  0  0  0  0  0  0  0  0
   28.6910   32.0110   15.8380 C   0  0  0  0  0  0  0  0  0  0  0  0
   27.9090   33.8720   16.4010 H   0  0  0  0  0  0  0  0  0  0  0  0
   27.7900   31.1520   16.6340 C   0  0  0  0  0  0  0  0  0  0  0  0
   29.5690   31.4500   15.1470 O   0  0  0  0  0  0  0  0  0  0  0  0
   27.2880   34.5140   12.8810 O   0  0  0  0  0  0  0  0  0  0  0  0
   27.6700   33.6180   13.1260 H   0  0  0  0  0  0  0  0  0  0  0  0
   27.0310   36.2090   16.0620 O   0  0  0  0  0  0  0  0  0  0  0  0
   26.9990   35.5040   16.7650 H   0  0  0  0  0  0  0  0  0  0  0  0
   22.9990   33.9310   12.3280 O   0  0  0  0  0  0  0  0  0  0  0  0
   22.7560   35.1290   11.6100 C   0  0  0  0  0  0  0  0  0  0  0  0
   24.0280   35.6420   11.0160 C   0  0  0  0  0  0  0  0  0  0  0  0
   24.4090   35.5040    9.6950 C   0  0  0  0  0  0  0  0  0  0  0  0
   25.0150   36.3160   11.6260 N   0  0  0  0  0  0  0  0  0  0  0  0
   25.6280   36.1080    9.5570 N   0  0  0  0  0  0  0  0  0  0  0  0
   25.9590   36.5800   10.7220 N   0  0  0  0  0  0  0  0  0  0  0  0
   26.3730   36.1760    8.3350 C   0  0  0  0  0  0  0  0  0  0  0  0
   26.2460   37.2290    7.4600 C   0  0  0  0  0  0  0  0  0  0  0  0
   27.2470   35.1340    8.0470 C   0  0  0  0  0  0  0  0  0  0  0  0
   27.0090   37.2230    6.2880 C   0  0  0  0  0  0  0  0  0  0  0  0
   27.9880   35.1460    6.8900 C   0  0  0  0  0  0  0  0  0  0  0  0
   27.8600   36.1940    6.0180 C   0  0  0  0  0  0  0  0  0  0  0  0
   25.3510   38.3510    7.7020 C   0  0  0  0  0  0  0  0  0  0  0  0
   25.7560   39.2610    8.4960 O   0  0  0  0  0  0  0  0  0  0  0  0
   24.0710   38.4630    7.0970 N   0  0  0  0  0  0  0  0  0  0  0  0
   23.9470   38.6750    6.0940 H   0  0  0  0  0  0  0  0  0  0  0  0
   23.2330   38.3230    7.7380 H   0  0  0  0  0  0  0  0  0  0  0  0
   29.8670   25.5550   16.9770 C   0  0  0  0  0  0  0  0  0  0  0  0
   28.3450   25.7220   17.0260 C   0  0  0  0  0  0  0  0  0  0  0  0
   27.6010   24.4020   16.8970 C   0  0  0  0  0  0  0  0  0  0  0  0
   26.5280   24.2520   17.9390 C   0  0  0  0  0  0  0  0  0  0  0  0
   25.1860   24.0050   17.2570 C   0  0  0  0  0  0  0  0  0  0  0  0
   24.3720   25.2430   17.2500 N   0  0  0  0  0  0  0  0  0  0  0  0
  1  4  1  0  0  0  0
  1  5  1  0  0  0  0
  2  1  1  0  0  0  0
  3  2  2  0  0  0  0
  6  5  1  1  0  0  0
  6 29  1  0  0  0  0
  7 27  1  1  0  0  0
  7  6  1  0  0  0  0
  8  7  1  6  0  0  0
  8 13  1  0  0  0  0
  9 14  1  6  0  0  0
  9 10  1  0  0  0  0
 10 12  1  0  0  0  0
 11  9  1  0  0  0  0
 11  8  1  0  0  0  0
 12 20  1  6  0  0  0
 13 12  1  0  0  0  0
 13 22  1  1  0  0  0
 15 14  1  0  0  0  0
 16 18  1  0  0  0  0
 16  9  1  0  0  0  0
 17 16  2  0  0  0  0
 18 19  1  0  0  0  0
 20 21  1  0  0  0  0
 22 23  1  0  0  0  0
 22 24  1  0  0  0  0
 23 25  1  0  0  0  0
 26 23  2  0  0  0  0
 27 28  1  0  0  0  0
 29 30  1  0  0  0  0
 31  2  1  0  0  0  0
 32 31  1  0  0  0  0
 33 32  1  0  0  0  0
 33 35  1  0  0  0  0
 34 33  2  0  0  0  0
 36 34  1  0  0  0  0
 36 37  1  0  0  0  0
 37 35  2  0  0  0  0
 38 36  1  0  0  0  0
 39 44  1  0  0  0  0
 39 38  2  0  0  0  0
 40 38  1  0  0  0  0
 41 39  1  0  0  0  0
 42 40  2  0  0  0  0
 43 41  2  0  0  0  0
 43 42  1  0  0  0  0
 44 45  2  0  0  0  0
 46 44  1  0  0  0  0
 46 48  1  0  0  0  0
 47 46  1  0  0  0  0
 49 50  1  0  0  0  0
 51 50  1  0  0  0  0
 51 52  1  0  0  0  0
 53 52  1  0  0  0  0
 54 53  1  0  0  0  0
M  END
>  <REMARK>
 VINA RESULT:    -5.166      4.844      9.074
 INTER + INTRA:         -14.656
 INTER:                  -9.904
 INTRA:                  -4.753
 UNBOUND:                -5.414
 SMILES CC(=O)N[C@@H]1[C@@H](O)C[C@](O)(C(=O)O)O[C@H]1C(O)[C@H](O)CNC(=O)OCc1cn(-c2ccccc2C(N)=O)nn1
 SMILES IDX 21 1 22 2 23 3 20 5 18 6 16 7 15 8 9 9 8 10 14 11 6 12 5 13
 SMILES IDX 10 14 11 16 12 17 13 18 7 20 4 22 2 23 1 25 3 26 17 27 19 29
 SMILES IDX 24 31 25 32 26 33 27 34 39 35 28 36 38 37 29 38 34 39 30 40
 SMILES IDX 33 41 31 42 32 43 35 44 37 45 36 46
 H PARENT 21 4 10 15 13 19 7 21 4 24 17 28 19 30 36 47 36 48
 Flexibility Score: inf
  4 active torsions:
  status: ('A' for Active; 'I' for Inactive)
    1  A    between atoms: CA   and  CB  
    2  A    between atoms: CB   and  CG  
    3  A    between atoms: CG   and  CD  
    4  A    between atoms: CD   and  CE  

>  <TORSDO>
F 16

>  <BEGIN_>
RES LYS A 131

$$$$
ligand_0_pose_15_2HRL.pdbqt
 OpenBabel07062320523D

  6  5  0  0  0  0  0  0  0  0999 V2000
   33.1930   34.6630    9.2900 C   0  0  0  0  0  0  0  0  0  0  0  0
   32.0600   35.3600   10.0340 C   0  0  0  0  0  0  0  0  0  0  0  0
   30.7780   35.4360    9.2450 C   0  0  0  0  0  0  0  0  0  0  0  0
   30.3740   36.8840    9.0150 C   0  0  0  0  0  0  0  0  0  0  0  0
   29.4680   37.3680   10.1300 C   0  0  0  0  0  0  0  0  0  0  0  0
   28.8090   38.6530    9.7660 N   0  0  0  0  0  0  0  0  0  0  0  0
  1  2  1  0  0  0  0
  3  2  1  0  0  0  0
  4  3  1  0  0  0  0
  4  5  1  0  0  0  0
  6  5  1  0  0  0  0
M  END
>  <EGIN_R>
ES LYS A 135

>  <REMARK>
  4 active torsions:
  status: ('A' for Active; 'I' for Inactive)
    5  A    between atoms: CA   and  CB  
    6  A    between atoms: CB   and  CG  
    7  A    between atoms: CG   and  CD  
    8  A    between atoms: CD   and  CE  

$$$$
