ligand_74_pose_4_2HRL.pdbqt
 OpenBabel07062320523D

 54 54  0  0  1  0  0  0  0  0999 V2000
   27.2940   30.0230   16.6510 O   0  0  0  0  0  0  0  0  0  0  0  0
   27.0170   28.8820   17.4240 C   0  0  0  0  0  0  0  0  0  0  0  0
   27.9000   28.4520   18.4430 N   0  0  0  0  0  0  0  0  0  0  0  0
   28.7760   29.0470   18.5850 H   0  0  0  0  0  0  0  0  0  0  0  0
   25.9590   28.2530   17.1800 O   0  0  0  0  0  0  0  0  0  0  0  0
   27.6670   27.2860   19.2640 C   0  0  0  0  0  0  0  0  0  0  0  0
   27.7170   27.6700   20.7030 C   0  0  2  0  0  0  0  0  0  0  0  0
   29.1290   27.8260   21.2440 C   0  0  2  0  0  0  0  0  0  0  0  0
   29.4130   29.2390   21.6460 C   0  0  2  0  0  0  0  0  0  0  0  0
   29.8590   30.8970   20.0820 C   0  0  2  0  0  0  0  0  0  0  0  0
   30.8740   31.5990   20.9520 C   0  0  0  0  0  0  0  0  0  0  0  0
   28.9140   30.2020   20.8200 O   0  0  0  0  0  0  0  0  0  0  0  0
   31.0230   30.9240   22.2990 C   0  0  1  0  0  0  0  0  0  0  0  0
   30.8840   29.4230   22.0100 C   0  0  1  0  0  0  0  0  0  0  0  0
   30.4890   30.0820   19.1380 O   0  0  0  0  0  0  0  0  0  0  0  0
   31.3560   30.4220   18.8480 H   0  0  0  0  0  0  0  0  0  0  0  0
   29.1280   31.9470   19.3240 C   0  0  0  0  0  0  0  0  0  0  0  0
   29.7150   33.0460   19.0820 O   0  0  0  0  0  0  0  0  0  0  0  0
   27.8380   31.7970   18.8620 O   0  0  0  0  0  0  0  0  0  0  0  0
   27.5480   32.3070   18.0130 H   0  0  0  0  0  0  0  0  0  0  0  0
   32.2030   31.2260   22.9310 O   0  0  0  0  0  0  0  0  0  0  0  0
   32.0980   30.9410   23.8910 H   0  0  0  0  0  0  0  0  0  0  0  0
   31.1730   28.6450   23.1880 N   0  0  0  0  0  0  0  0  0  0  0  0
   32.0340   27.5060   23.1170 C   0  0  0  0  0  0  0  0  0  0  0  0
   30.7790   28.8640   24.1360 H   0  0  0  0  0  0  0  0  0  0  0  0
   32.3510   26.6890   24.3040 C   0  0  0  0  0  0  0  0  0  0  0  0
   32.5400   27.1850   22.0130 O   0  0  0  0  0  0  0  0  0  0  0  0
   30.0480   27.2820   20.3780 O   0  0  0  0  0  0  0  0  0  0  0  0
   29.8070   27.5280   19.4610 H   0  0  0  0  0  0  0  0  0  0  0  0
   27.1020   26.6420   21.4560 O   0  0  0  0  0  0  0  0  0  0  0  0
   26.6600   25.9890   20.8690 H   0  0  0  0  0  0  0  0  0  0  0  0
   28.4360   29.9900   15.8310 C   0  0  0  0  0  0  0  0  0  0  0  0
   29.1320   31.2880   15.7840 C   0  0  0  0  0  0  0  0  0  0  0  0
   30.4880   31.5720   15.7160 C   0  0  0  0  0  0  0  0  0  0  0  0
   28.5310   32.4840   15.7990 N   0  0  0  0  0  0  0  0  0  0  0  0
   30.6560   32.9050   15.6920 N   0  0  0  0  0  0  0  0  0  0  0  0
   29.4600   33.4330   15.7440 N   0  0  0  0  0  0  0  0  0  0  0  0
   31.9730   33.5960   15.6200 C   0  0  0  0  0  0  0  0  0  0  0  0
   31.8030   34.9340   14.9910 C   0  0  2  0  0  0  0  0  0  0  0  0
   31.8450   34.7480   13.4840 C   0  0  0  0  0  0  0  0  0  0  0  0
   30.5970   35.2900   12.8900 C   0  0  0  0  0  0  0  0  0  0  0  0
   29.6320   34.5470   12.6370 O   0  0  0  0  0  0  0  0  0  0  0  0
   30.5540   36.6620   12.6260 O   0  0  0  0  0  0  0  0  0  0  0  0
   30.5040   37.3090   13.3880 H   0  0  0  0  0  0  0  0  0  0  0  0
   32.7320   35.9520   15.5110 C   0  0  0  0  0  0  0  0  0  0  0  0
   32.2280   37.3320   15.6990 C   0  0  0  0  0  0  0  0  0  0  0  0
   30.7590   37.1750   16.1830 C   0  0  0  0  0  0  0  0  0  0  0  0
   32.9240   38.1830   16.7050 C   0  0  0  0  0  0  0  0  0  0  0  0
   29.8670   25.5550   16.9770 C   0  0  0  0  0  0  0  0  0  0  0  0
   28.3450   25.7220   17.0260 C   0  0  0  0  0  0  0  0  0  0  0  0
   27.6010   24.4030   16.8810 C   0  0  0  0  0  0  0  0  0  0  0  0
   26.1700   24.5080   17.3320 C   0  0  0  0  0  0  0  0  0  0  0  0
   25.9730   23.6750   18.5950 C   0  0  0  0  0  0  0  0  0  0  0  0
   25.0040   22.5810   18.3480 N   0  0  0  0  0  0  0  0  0  0  0  0
  1  2  1  0  0  0  0
  2  3  1  0  0  0  0
  3  4  1  0  0  0  0
  3  6  1  0  0  0  0
  5  2  2  0  0  0  0
  7  6  1  6  0  0  0
  7  8  1  0  0  0  0
  7 30  1  0  0  0  0
  8 28  1  6  0  0  0
  9  8  1  6  0  0  0
  9 14  1  0  0  0  0
 10 15  1  6  0  0  0
 10 12  1  0  0  0  0
 10 11  1  0  0  0  0
 11 13  1  0  0  0  0
 12  9  1  0  0  0  0
 13 21  1  6  0  0  0
 14 13  1  0  0  0  0
 14 23  1  1  0  0  0
 16 15  1  0  0  0  0
 17 10  1  0  0  0  0
 18 17  2  0  0  0  0
 19 17  1  0  0  0  0
 20 19  1  0  0  0  0
 21 22  1  0  0  0  0
 23 25  1  0  0  0  0
 24 23  1  0  0  0  0
 24 26  1  0  0  0  0
 27 24  2  0  0  0  0
 29 28  1  0  0  0  0
 31 30  1  0  0  0  0
 32  1  1  0  0  0  0
 33 35  1  0  0  0  0
 33 32  1  0  0  0  0
 34 33  2  0  0  0  0
 36 34  1  0  0  0  0
 36 37  1  0  0  0  0
 37 35  2  0  0  0  0
 38 36  1  0  0  0  0
 39 40  1  6  0  0  0
 39 45  1  0  0  0  0
 39 38  1  0  0  0  0
 41 40  1  0  0  0  0
 42 41  2  0  0  0  0
 43 41  1  0  0  0  0
 43 44  1  0  0  0  0
 45 46  1  0  0  0  0
 46 47  1  0  0  0  0
 46 48  1  0  0  0  0
 49 50  1  0  0  0  0
 51 50  1  0  0  0  0
 51 52  1  0  0  0  0
 52 53  1  0  0  0  0
 54 53  1  0  0  0  0
M  END
>  <REMARK>
 VINA RESULT:    -4.463      1.458      2.069
 INTER + INTRA:         -16.277
 INTER:                  -8.922
 INTRA:                  -7.355
 UNBOUND:                -7.118
 SMILES CC(=O)N[C@@H]1[C@@H](O)C[C@](O)(C(=O)O)O[C@H]1C(O)[C@H](O)CNC(=O)OCc1cn(C[C@H](CC(=O)O)CC(C)C)nn1
 SMILES IDX 24 1 22 2 21 3 23 5 20 6 18 7 16 8 15 9 9 10 8 11 14 12 6 13
 SMILES IDX 5 14 10 15 11 17 12 18 13 19 7 21 4 23 2 24 1 26 3 27 17 28
 SMILES IDX 19 30 25 32 26 33 27 34 40 35 28 36 39 37 29 38 30 39 31 40
 SMILES IDX 32 41 33 42 34 43 35 45 36 46 37 47 38 48
 H PARENT 21 4 10 16 13 20 7 22 4 25 17 29 19 31 34 44
 Flexibility Score: inf
  4 active torsions:
  status: ('A' for Active; 'I' for Inactive)
    1  A    between atoms: CA   and  CB  
    2  A    between atoms: CB   and  CG  
    3  A    between atoms: CG   and  CD  
    4  A    between atoms: CD   and  CE  

>  <TORSDO>
F 21

>  <BEGIN_>
RES LYS A 131

$$$$
ligand_74_pose_4_2HRL.pdbqt
 OpenBabel07062320523D

  6  5  0  0  0  0  0  0  0  0999 V2000
   33.1930   34.6630    9.2900 C   0  0  0  0  0  0  0  0  0  0  0  0
   32.0600   35.3600   10.0340 C   0  0  0  0  0  0  0  0  0  0  0  0
   30.7980   35.4930    9.2220 C   0  0  0  0  0  0  0  0  0  0  0  0
   30.1100   34.1440    9.0740 C   0  0  0  0  0  0  0  0  0  0  0  0
   28.6620   34.3270    8.6630 C   0  0  0  0  0  0  0  0  0  0  0  0
   28.5500   35.2100    7.4690 N   0  0  0  0  0  0  0  0  0  0  0  0
  1  2  1  0  0  0  0
  3  2  1  0  0  0  0
  4  3  1  0  0  0  0
  5  4  1  0  0  0  0
  6  5  1  0  0  0  0
M  END
>  <EGIN_R>
ES LYS A 135

>  <REMARK>
  4 active torsions:
  status: ('A' for Active; 'I' for Inactive)
    5  A    between atoms: CA   and  CB  
    6  A    between atoms: CB   and  CG  
    7  A    between atoms: CG   and  CD  
    8  A    between atoms: CD   and  CE  

$$$$
