ligand_34_pose_8_2HRL.pdbqt
 OpenBabel07062320523D

 69 73  0  0  1  0  0  0  0  0999 V2000
   30.3870   36.0620   18.5200 N   0  0  0  0  0  0  0  0  0  0  0  0
   29.6640   34.9510   19.0760 C   0  0  0  0  0  0  0  0  0  0  0  0
   28.7100   35.2260   19.8540 O   0  0  0  0  0  0  0  0  0  0  0  0
   31.1810   35.8940   17.8760 H   0  0  0  0  0  0  0  0  0  0  0  0
   30.0280   37.4220   18.8430 C   0  0  0  0  0  0  0  0  0  0  0  0
   29.1890   37.9830   17.7430 C   0  0  2  0  0  0  0  0  0  0  0  0
   30.0380   38.6270   16.6480 C   0  0  2  0  0  0  0  0  0  0  0  0
   30.0500   37.7520   15.4050 C   0  0  2  0  0  0  0  0  0  0  0  0
   31.8550   36.3180   15.0700 C   0  0  2  0  0  0  0  0  0  0  0  0
   31.6230   36.2760   13.5760 C   0  0  0  0  0  0  0  0  0  0  0  0
   30.6770   36.5800   15.7220 O   0  0  0  0  0  0  0  0  0  0  0  0
   31.0050   37.5400   13.0990 C   0  0  1  0  0  0  0  0  0  0  0  0
   30.5790   38.4670   14.2110 C   0  0  1  0  0  0  0  0  0  0  0  0
   32.8570   37.2230   15.3130 O   0  0  0  0  0  0  0  0  0  0  0  0
   33.0490   37.3750   16.2550 H   0  0  0  0  0  0  0  0  0  0  0  0
   32.3030   34.9630   15.4720 C   0  0  0  0  0  0  0  0  0  0  0  0
   32.4500   34.6860   16.6890 O   0  0  0  0  0  0  0  0  0  0  0  0
   32.5760   33.9560   14.5600 O   0  0  0  0  0  0  0  0  0  0  0  0
   32.0330   33.8550   13.6890 H   0  0  0  0  0  0  0  0  0  0  0  0
   31.8510   38.2490   12.2500 O   0  0  0  0  0  0  0  0  0  0  0  0
   32.4720   38.8470   12.7220 H   0  0  0  0  0  0  0  0  0  0  0  0
   29.5380   39.3310   13.6360 N   0  0  0  0  0  0  0  0  0  0  0  0
   29.7770   40.6400   13.1820 C   0  0  0  0  0  0  0  0  0  0  0  0
   28.5760   38.9270   13.5690 H   0  0  0  0  0  0  0  0  0  0  0  0
   28.6740   41.4480   12.6150 C   0  0  0  0  0  0  0  0  0  0  0  0
   30.9710   41.0740   13.2880 O   0  0  0  0  0  0  0  0  0  0  0  0
   31.3240   38.7500   17.1860 O   0  0  0  0  0  0  0  0  0  0  0  0
   31.8410   37.9670   16.8570 H   0  0  0  0  0  0  0  0  0  0  0  0
   28.2360   38.8790   18.2210 O   0  0  0  0  0  0  0  0  0  0  0  0
   27.6590   39.2340   17.5040 H   0  0  0  0  0  0  0  0  0  0  0  0
   29.9640   33.6500   18.8010 O   0  0  0  0  0  0  0  0  0  0  0  0
   29.0600   32.8100   18.1230 C   0  0  0  0  0  0  0  0  0  0  0  0
   29.1510   33.0820   16.6740 C   0  0  0  0  0  0  0  0  0  0  0  0
   28.3970   34.0010   15.9420 C   0  0  0  0  0  0  0  0  0  0  0  0
   29.9610   32.4980   15.7800 N   0  0  0  0  0  0  0  0  0  0  0  0
   28.7750   33.9420   14.6520 N   0  0  0  0  0  0  0  0  0  0  0  0
   29.7190   33.0270   14.5870 N   0  0  0  0  0  0  0  0  0  0  0  0
   28.2080   34.7420   13.6270 C   0  0  0  0  0  0  0  0  0  0  0  0
   27.4120   35.8290   13.8340 C   0  0  0  0  0  0  0  0  0  0  0  0
   28.4810   34.3910   12.3020 C   0  0  0  0  0  0  0  0  0  0  0  0
   26.8740   36.5830   12.7950 C   0  0  0  0  0  0  0  0  0  0  0  0
   27.9650   35.1180   11.2650 C   0  0  0  0  0  0  0  0  0  0  0  0
   27.1540   36.2240   11.5140 C   0  0  0  0  0  0  0  0  0  0  0  0
   26.0250   37.7430   13.0560 C   0  0  0  0  0  0  0  0  0  0  0  0
   26.5200   38.9090   13.1700 O   0  0  0  0  0  0  0  0  0  0  0  0
   24.6700   37.5960   13.1830 O   0  0  0  0  0  0  0  0  0  0  0  0
   26.6550   36.9290   10.3440 C   0  0  0  0  0  0  0  0  0  0  0  0
   25.4330   36.6900    9.7530 C   0  0  0  0  0  0  0  0  0  0  0  0
   27.4520   37.9100    9.7780 C   0  0  0  0  0  0  0  0  0  0  0  0
   24.6090   35.7190   10.2890 C   0  0  0  0  0  0  0  0  0  0  0  0
   25.0100   37.4010    8.6360 C   0  0  0  0  0  0  0  0  0  0  0  0
   26.9650   38.6260    8.6090 C   0  0  0  0  0  0  0  0  0  0  0  0
   28.6910   38.2260   10.2900 C   0  0  0  0  0  0  0  0  0  0  0  0
   23.3690   35.4430    9.7310 C   0  0  0  0  0  0  0  0  0  0  0  0
   23.7860   37.1500    8.0600 C   0  0  0  0  0  0  0  0  0  0  0  0
   25.7690   38.3280    8.1050 O   0  0  0  0  0  0  0  0  0  0  0  0
   27.7420   39.5940    8.0450 C   0  0  0  0  0  0  0  0  0  0  0  0
   29.4320   39.2040    9.6890 C   0  0  0  0  0  0  0  0  0  0  0  0
   22.9770   36.1650    8.6210 C   0  0  0  0  0  0  0  0  0  0  0  0
   28.9790   39.8940    8.5750 C   0  0  0  0  0  0  0  0  0  0  0  0
   29.7000   40.7880    8.0580 O   0  0  0  0  0  0  0  0  0  0  0  0
   21.7420   35.8950    8.0560 O   0  0  0  0  0  0  0  0  0  0  0  0
   21.4480   36.2280    7.1570 H   0  0  0  0  0  0  0  0  0  0  0  0
   29.8670   25.5550   16.9770 C   0  0  0  0  0  0  0  0  0  0  0  0
   28.3450   25.7220   17.0260 C   0  0  0  0  0  0  0  0  0  0  0  0
   27.5990   24.4420   16.6830 C   0  0  0  0  0  0  0  0  0  0  0  0
   27.0360   23.7700   17.9050 C   0  0  0  0  0  0  0  0  0  0  0  0
   25.6600   23.1960   17.5820 C   0  0  0  0  0  0  0  0  0  0  0  0
   24.7650   24.2560   17.0600 N   0  0  0  0  0  0  0  0  0  0  0  0
  1  5  1  0  0  0  0
  1  2  1  0  0  0  0
  2  3  2  0  0  0  0
  4  1  1  0  0  0  0
  6 29  1  0  0  0  0
  6  5  1  1  0  0  0
  7 27  1  1  0  0  0
  7  6  1  0  0  0  0
  8 11  1  0  0  0  0
  8  7  1  1  0  0  0
  9 14  1  1  0  0  0
  9 16  1  0  0  0  0
  9 11  1  0  0  0  0
 10  9  1  0  0  0  0
 12 20  1  6  0  0  0
 12 10  1  0  0  0  0
 12 13  1  0  0  0  0
 13 22  1  6  0  0  0
 13  8  1  0  0  0  0
 14 15  1  0  0  0  0
 16 17  2  0  0  0  0
 18 16  1  0  0  0  0
 19 18  1  0  0  0  0
 20 21  1  0  0  0  0
 23 26  2  0  0  0  0
 23 22  1  0  0  0  0
 24 22  1  0  0  0  0
 25 23  1  0  0  0  0
 28 27  1  0  0  0  0
 30 29  1  0  0  0  0
 31  2  1  0  0  0  0
 32 31  1  0  0  0  0
 33 32  1  0  0  0  0
 34 33  2  0  0  0  0
 35 33  1  0  0  0  0
 36 34  1  0  0  0  0
 37 36  1  0  0  0  0
 37 35  2  0  0  0  0
 38 39  1  0  0  0  0
 38 36  1  0  0  0  0
 40 38  2  0  0  0  0
 41 44  1  0  0  0  0
 41 39  2  0  0  0  0
 42 43  2  0  0  0  0
 42 40  1  0  0  0  0
 43 41  1  0  0  0  0
 44 45  2  0  0  0  0
 44 46  1  0  0  0  0
 47 43  1  0  0  0  0
 48 50  2  0  0  0  0
 48 47  1  0  0  0  0
 49 53  1  0  0  0  0
 49 47  2  0  0  0  0
 51 48  1  0  0  0  0
 52 49  1  0  0  0  0
 54 50  1  0  0  0  0
 55 59  1  0  0  0  0
 55 51  2  0  0  0  0
 56 52  1  0  0  0  0
 56 51  1  0  0  0  0
 57 60  1  0  0  0  0
 57 52  2  0  0  0  0
 58 53  2  0  0  0  0
 59 54  2  0  0  0  0
 60 58  1  0  0  0  0
 61 60  2  0  0  0  0
 62 59  1  0  0  0  0
 63 62  1  0  0  0  0
 64 65  1  0  0  0  0
 66 65  1  0  0  0  0
 66 67  1  0  0  0  0
 68 67  1  0  0  0  0
 69 68  1  0  0  0  0
M  END
>  <REMARK>
 VINA RESULT:    -5.462      3.241      6.134
 INTER + INTRA:         -17.969
 INTER:                  -8.365
 INTRA:                  -9.603
 UNBOUND:                -7.717
 SMILES CC(=O)N[C@@H]1[C@@H](O)C[C@](O)(C(=O)O)O[C@H]1C(O)[C@H](O)CNC(=O)OCc1cn(-c2ccc(-c3c4ccc(=O)cc-4oc4cc(O)ccc34)c(C(=O)[O-])c2)nn1
 SMILES IDX 21 1 22 2 23 3 20 5 18 6 16 7 15 8 9 9 8 10 14 11 6 12 5 13
 SMILES IDX 10 14 11 16 12 17 13 18 7 20 4 22 2 23 1 25 3 26 17 27 19 29
 SMILES IDX 24 31 25 32 26 33 27 34 55 35 28 36 54 37 29 38 53 39 30 40
 SMILES IDX 49 41 31 42 32 43 50 44 51 45 52 46 33 47 48 48 34 49 47 50
 SMILES IDX 42 51 40 52 35 53 46 54 43 55 41 56 39 57 36 58 44 59 37 60
 SMILES IDX 38 61 45 62
 H PARENT 21 4 10 15 13 19 7 21 4 24 17 28 19 30 45 63
 Flexibility Score: inf
  4 active torsions:
  status: ('A' for Active; 'I' for Inactive)
    1  A    between atoms: CA   and  CB  
    2  A    between atoms: CB   and  CG  
    3  A    between atoms: CG   and  CD  
    4  A    between atoms: CD   and  CE  

>  <TORSDO>
F 18

>  <BEGIN_>
RES LYS A 131

$$$$
ligand_34_pose_8_2HRL.pdbqt
 OpenBabel07062320523D

  6  5  0  0  0  0  0  0  0  0999 V2000
   33.1930   34.6630    9.2900 C   0  0  0  0  0  0  0  0  0  0  0  0
   32.0600   35.3600   10.0340 C   0  0  0  0  0  0  0  0  0  0  0  0
   30.9170   35.7720    9.1420 C   0  0  0  0  0  0  0  0  0  0  0  0
   30.3840   34.5780    8.3660 C   0  0  0  0  0  0  0  0  0  0  0  0
   28.9540   34.8240    7.9260 C   0  0  0  0  0  0  0  0  0  0  0  0
   28.8840   35.9170    6.9170 N   0  0  0  0  0  0  0  0  0  0  0  0
  1  2  1  0  0  0  0
  3  2  1  0  0  0  0
  4  3  1  0  0  0  0
  5  4  1  0  0  0  0
  6  5  1  0  0  0  0
M  END
>  <EGIN_R>
ES LYS A 135

>  <REMARK>
  4 active torsions:
  status: ('A' for Active; 'I' for Inactive)
    5  A    between atoms: CA   and  CB  
    6  A    between atoms: CB   and  CG  
    7  A    between atoms: CG   and  CD  
    8  A    between atoms: CD   and  CE  

$$$$
