ligand_83_pose_14_2HRL.pdbqt
 OpenBabel07062320523D

 56 57  0  0  1  0  0  0  0  0999 V2000
   25.3420   34.8850   12.4840 O   0  0  0  0  0  0  0  0  0  0  0  0
   24.0580   34.8990   13.0520 C   0  0  0  0  0  0  0  0  0  0  0  0
   22.9270   34.4060   12.3920 N   0  0  0  0  0  0  0  0  0  0  0  0
   23.0680   34.0100   11.4140 H   0  0  0  0  0  0  0  0  0  0  0  0
   23.9700   35.3760   14.1920 O   0  0  0  0  0  0  0  0  0  0  0  0
   21.5920   34.3990   12.9420 C   0  0  0  0  0  0  0  0  0  0  0  0
   20.6140   34.5440   11.8080 C   0  0  2  0  0  0  0  0  0  0  0  0
   20.2950   36.0110   11.6470 C   0  0  2  0  0  0  0  0  0  0  0  0
   20.4170   36.4410   10.1910 C   0  0  2  0  0  0  0  0  0  0  0  0
   20.0890   35.5390    8.0690 C   0  0  2  0  0  0  0  0  0  0  0  0
   21.2860   36.3820    7.6730 C   0  0  0  0  0  0  0  0  0  0  0  0
   20.0840   35.3540    9.4300 O   0  0  0  0  0  0  0  0  0  0  0  0
   22.3670   36.2460    8.7220 C   0  0  1  0  0  0  0  0  0  0  0  0
   21.8350   36.9350    9.9730 C   0  0  1  0  0  0  0  0  0  0  0  0
   20.1790   34.2610    7.4850 O   0  0  0  0  0  0  0  0  0  0  0  0
   20.8020   33.7390    8.0420 H   0  0  0  0  0  0  0  0  0  0  0  0
   18.8170   36.1460    7.6570 C   0  0  0  0  0  0  0  0  0  0  0  0
   17.7350   35.6330    7.9850 O   0  0  0  0  0  0  0  0  0  0  0  0
   18.8100   37.3010    6.8950 O   0  0  0  0  0  0  0  0  0  0  0  0
   19.6080   37.5610    6.3460 H   0  0  0  0  0  0  0  0  0  0  0  0
   22.6210   34.9310    9.0770 O   0  0  0  0  0  0  0  0  0  0  0  0
   21.7930   34.4780    9.3320 H   0  0  0  0  0  0  0  0  0  0  0  0
   21.8880   38.3560    9.7790 N   0  0  0  0  0  0  0  0  0  0  0  0
   22.6730   39.1710   10.6210 C   0  0  0  0  0  0  0  0  0  0  0  0
   21.3560   38.8570    9.0180 H   0  0  0  0  0  0  0  0  0  0  0  0
   22.7240   40.6500   10.4140 C   0  0  0  0  0  0  0  0  0  0  0  0
   23.3450   38.6710   11.5600 O   0  0  0  0  0  0  0  0  0  0  0  0
   21.2300   36.7400   12.3560 O   0  0  0  0  0  0  0  0  0  0  0  0
   21.4180   36.3620   13.2470 H   0  0  0  0  0  0  0  0  0  0  0  0
   19.4670   33.7780   11.9980 O   0  0  0  0  0  0  0  0  0  0  0  0
   18.7580   34.4010   12.2970 H   0  0  0  0  0  0  0  0  0  0  0  0
   25.8820   36.0970   11.9340 C   0  0  0  0  0  0  0  0  0  0  0  0
   25.8350   36.0930   10.4750 C   0  0  0  0  0  0  0  0  0  0  0  0
   25.7630   37.2000    9.6660 C   0  0  0  0  0  0  0  0  0  0  0  0
   25.8530   35.0030    9.6940 N   0  0  0  0  0  0  0  0  0  0  0  0
   25.7400   36.7450    8.4060 N   0  0  0  0  0  0  0  0  0  0  0  0
   25.7950   35.4350    8.4450 N   0  0  0  0  0  0  0  0  0  0  0  0
   25.6650   37.6110    7.2170 C   0  0  0  0  0  0  0  0  0  0  0  0
   25.0260   38.9330    7.5810 C   0  0  2  0  0  0  0  0  0  0  0  0
   23.6760   38.8160    7.1830 O   0  0  0  0  0  0  0  0  0  0  0  0
   23.4100   37.8890    7.0360 H   0  0  0  0  0  0  0  0  0  0  0  0
   25.7140   40.0350    6.8410 C   0  0  0  0  0  0  0  0  0  0  0  0
   27.1210   40.0510    7.2510 N   0  0  0  0  0  0  0  0  0  0  0  0
   27.5870   40.2730    8.5020 C   0  0  0  0  0  0  0  0  0  0  0  0
   28.1370   39.8330    6.4350 C   0  0  0  0  0  0  0  0  0  0  0  0
   28.9410   40.1890    8.4520 C   0  0  0  0  0  0  0  0  0  0  0  0
   29.2690   39.9200    7.1890 N   0  0  0  0  0  0  0  0  0  0  0  0
   28.1080   39.5580    5.0250 N   0  0  0  0  0  0  0  0  0  0  0  0
   27.9090   38.4250    4.5590 O   0  0  0  0  0  0  0  0  0  0  0  0
   28.3080   40.5960    4.1380 O   0  0  0  0  0  0  0  0  0  0  0  0
   29.8670   25.5550   16.9770 C   0  0  0  0  0  0  0  0  0  0  0  0
   28.3450   25.7220   17.0260 C   0  0  0  0  0  0  0  0  0  0  0  0
   27.5990   24.4770   16.5720 C   0  0  0  0  0  0  0  0  0  0  0  0
   27.0310   23.7030   17.7290 C   0  0  0  0  0  0  0  0  0  0  0  0
   25.5430   24.0100   17.8650 C   0  0  0  0  0  0  0  0  0  0  0  0
   24.7310   22.8680   17.3850 N   0  0  0  0  0  0  0  0  0  0  0  0
  1  2  1  0  0  0  0
  2  5  2  0  0  0  0
  3  6  1  0  0  0  0
  3  2  1  0  0  0  0
  4  3  1  0  0  0  0
  7 30  1  0  0  0  0
  7  6  1  1  0  0  0
  8  7  1  0  0  0  0
  8 28  1  1  0  0  0
  9  8  1  1  0  0  0
 10 15  1  6  0  0  0
 10 12  1  0  0  0  0
 11 10  1  0  0  0  0
 11 13  1  0  0  0  0
 12  9  1  0  0  0  0
 13 21  1  1  0  0  0
 13 14  1  0  0  0  0
 14 23  1  6  0  0  0
 14  9  1  0  0  0  0
 15 16  1  0  0  0  0
 17 18  2  0  0  0  0
 17 10  1  0  0  0  0
 19 17  1  0  0  0  0
 20 19  1  0  0  0  0
 21 22  1  0  0  0  0
 23 24  1  0  0  0  0
 24 27  2  0  0  0  0
 25 23  1  0  0  0  0
 26 24  1  0  0  0  0
 28 29  1  0  0  0  0
 30 31  1  0  0  0  0
 32  1  1  0  0  0  0
 33 32  1  0  0  0  0
 34 33  2  0  0  0  0
 35 33  1  0  0  0  0
 36 37  1  0  0  0  0
 36 34  1  0  0  0  0
 37 35  2  0  0  0  0
 38 39  1  0  0  0  0
 38 36  1  0  0  0  0
 39 42  1  6  0  0  0
 40 39  1  0  0  0  0
 41 40  1  0  0  0  0
 42 43  1  0  0  0  0
 43 44  1  0  0  0  0
 45 47  2  0  0  0  0
 45 43  1  0  0  0  0
 46 44  2  0  0  0  0
 47 46  1  0  0  0  0
 48 45  1  0  0  0  0
 49 48  2  0  0  0  0
 50 48  2  0  0  0  0
 51 52  1  0  0  0  0
 53 52  1  0  0  0  0
 53 54  1  0  0  0  0
 54 55  1  0  0  0  0
 56 55  1  0  0  0  0
M  END
>  <REMARK>
 VINA RESULT:    -3.607      8.060     13.654
 INTER + INTRA:         -15.637
 INTER:                  -8.165
 INTRA:                  -7.472
 UNBOUND:                -8.446
 SMILES CC(=O)N[C@@H]1[C@@H](O)C[C@](O)(C(=O)O)O[C@H]1C(O)[C@H](O)CNC(=O)OCc1cn(CC(O)Cn2ccnc2[N+](=O)[O-])nn1
 SMILES IDX 24 1 22 2 21 3 23 5 20 6 18 7 16 8 15 9 9 10 8 11 14 12 6 13
 SMILES IDX 5 14 10 15 11 17 12 18 13 19 7 21 4 23 2 24 1 26 3 27 17 28
 SMILES IDX 19 30 25 32 26 33 27 34 42 35 28 36 41 37 29 38 30 39 31 40
 SMILES IDX 32 42 33 43 34 44 37 45 35 46 36 47 38 48 39 49 40 50
 H PARENT 21 4 10 16 13 20 7 22 4 25 17 29 19 31 31 41
 Flexibility Score: inf
  4 active torsions:
  status: ('A' for Active; 'I' for Inactive)
    1  A    between atoms: CA   and  CB  
    2  A    between atoms: CB   and  CG  
    3  A    between atoms: CG   and  CD  
    4  A    between atoms: CD   and  CE  

>  <TORSDO>
F 20

>  <BEGIN_>
RES LYS A 131

$$$$
ligand_83_pose_14_2HRL.pdbqt
 OpenBabel07062320523D

  6  5  0  0  0  0  0  0  0  0999 V2000
   33.1930   34.6630    9.2900 C   0  0  0  0  0  0  0  0  0  0  0  0
   32.0600   35.3600   10.0340 C   0  0  0  0  0  0  0  0  0  0  0  0
   30.6970   34.7990    9.7180 C   0  0  0  0  0  0  0  0  0  0  0  0
   30.5950   34.4340    8.2450 C   0  0  0  0  0  0  0  0  0  0  0  0
   29.4430   35.1730    7.5920 C   0  0  0  0  0  0  0  0  0  0  0  0
   29.1910   36.4770    8.2650 N   0  0  0  0  0  0  0  0  0  0  0  0
  1  2  1  0  0  0  0
  3  2  1  0  0  0  0
  4  3  1  0  0  0  0
  5  4  1  0  0  0  0
  5  6  1  0  0  0  0
M  END
>  <EGIN_R>
ES LYS A 135

>  <REMARK>
  4 active torsions:
  status: ('A' for Active; 'I' for Inactive)
    5  A    between atoms: CA   and  CB  
    6  A    between atoms: CB   and  CG  
    7  A    between atoms: CG   and  CD  
    8  A    between atoms: CD   and  CE  

$$$$
