ligand_15_pose_9_2HRL.pdbqt
 OpenBabel07062320523D

 50 51  0  0  1  0  0  0  0  0999 V2000
   30.5190   33.1630   17.0800 C   0  0  0  0  0  0  0  0  0  0  0  0
   30.8330   32.7990   15.6600 C   0  0  2  0  0  0  0  0  0  0  0  0
   29.8230   33.2210   14.6520 C   0  0  2  0  0  0  0  0  0  0  0  0
   30.1130   34.5580   14.0020 C   0  0  2  0  0  0  0  0  0  0  0  0
   31.8830   36.0980   14.0240 C   0  0  2  0  0  0  0  0  0  0  0  0
   30.8190   37.1510   13.8890 C   0  0  0  0  0  0  0  0  0  0  0  0
   31.3740   34.9250   14.4580 O   0  0  0  0  0  0  0  0  0  0  0  0
   29.7310   36.8440   14.8920 C   0  0  1  0  0  0  0  0  0  0  0  0
   29.0620   35.5370   14.4450 C   0  0  1  0  0  0  0  0  0  0  0  0
   32.8230   36.5240   15.0040 O   0  0  0  0  0  0  0  0  0  0  0  0
   32.7050   37.5080   15.0560 H   0  0  0  0  0  0  0  0  0  0  0  0
   32.6100   35.8860   12.7420 C   0  0  0  0  0  0  0  0  0  0  0  0
   32.5820   36.6940   11.7970 O   0  0  0  0  0  0  0  0  0  0  0  0
   33.3580   34.7330   12.5830 O   0  0  0  0  0  0  0  0  0  0  0  0
   33.0750   33.9680   11.9690 H   0  0  0  0  0  0  0  0  0  0  0  0
   30.3510   36.5650   16.1090 O   0  0  0  0  0  0  0  0  0  0  0  0
   31.2920   36.8240   16.1350 H   0  0  0  0  0  0  0  0  0  0  0  0
   28.2440   35.8970   13.3200 N   0  0  0  0  0  0  0  0  0  0  0  0
   26.9470   35.3840   13.0830 C   0  0  0  0  0  0  0  0  0  0  0  0
   28.6040   36.5850   12.6090 H   0  0  0  0  0  0  0  0  0  0  0  0
   26.1360   35.7870   11.8960 C   0  0  0  0  0  0  0  0  0  0  0  0
   26.4620   34.5680   13.8920 O   0  0  0  0  0  0  0  0  0  0  0  0
   28.5600   33.2650   15.2920 O   0  0  0  0  0  0  0  0  0  0  0  0
   27.9550   32.6920   14.7750 H   0  0  0  0  0  0  0  0  0  0  0  0
   30.9630   31.3940   15.6060 O   0  0  0  0  0  0  0  0  0  0  0  0
   30.4870   30.9670   16.3600 H   0  0  0  0  0  0  0  0  0  0  0  0
   29.9070   32.1380   17.8600 N   0  0  0  0  0  0  0  0  0  0  0  0
   28.6200   32.3660   18.4700 C   0  0  0  0  0  0  0  0  0  0  0  0
   30.3030   31.1960   18.0560 H   0  0  0  0  0  0  0  0  0  0  0  0
   28.0790   33.4830   18.2870 O   0  0  0  0  0  0  0  0  0  0  0  0
   28.0000   31.3880   19.2330 O   0  0  0  0  0  0  0  0  0  0  0  0
   27.9930   30.0770   18.6840 C   0  0  0  0  0  0  0  0  0  0  0  0
   27.3480   30.1750   17.3430 C   0  0  0  0  0  0  0  0  0  0  0  0
   26.0220   29.9250   17.0460 C   0  0  0  0  0  0  0  0  0  0  0  0
   27.9150   30.5200   16.1710 N   0  0  0  0  0  0  0  0  0  0  0  0
   25.8260   30.1220   15.7310 N   0  0  0  0  0  0  0  0  0  0  0  0
   26.9910   30.4800   15.2430 N   0  0  0  0  0  0  0  0  0  0  0  0
   24.6350   29.9910   14.9600 C   0  0  0  0  0  0  0  0  0  0  0  0
   23.4950   29.3890   15.4570 C   0  0  0  0  0  0  0  0  0  0  0  0
   24.5740   30.4690   13.6670 C   0  0  0  0  0  0  0  0  0  0  0  0
   22.3460   29.2700   14.6970 C   0  0  0  0  0  0  0  0  0  0  0  0
   23.4220   30.3510   12.8980 C   0  0  0  0  0  0  0  0  0  0  0  0
   22.2910   29.7510   13.4010 C   0  0  0  0  0  0  0  0  0  0  0  0
   20.6830   29.5610   12.3980 Br  0  0  0  0  0  0  0  0  0  0  0  0
   29.8670   25.5550   16.9770 C   0  0  0  0  0  0  0  0  0  0  0  0
   28.3450   25.7220   17.0260 C   0  0  0  0  0  0  0  0  0  0  0  0
   27.6000   24.4090   16.8370 C   0  0  0  0  0  0  0  0  0  0  0  0
   26.5510   24.1960   17.8930 C   0  0  0  0  0  0  0  0  0  0  0  0
   25.2010   23.9500   17.2270 C   0  0  0  0  0  0  0  0  0  0  0  0
   24.7410   22.5650   17.4850 N   0  0  0  0  0  0  0  0  0  0  0  0
  1 27  1  0  0  0  0
  2  1  1  1  0  0  0
  3 23  1  1  0  0  0
  3  2  1  0  0  0  0
  4  9  1  0  0  0  0
  4  7  1  0  0  0  0
  4  3  1  1  0  0  0
  5 12  1  6  0  0  0
  5  7  1  0  0  0  0
  5 10  1  0  0  0  0
  6  5  1  0  0  0  0
  6  8  1  0  0  0  0
  8 16  1  1  0  0  0
  9 18  1  6  0  0  0
  9  8  1  0  0  0  0
 10 11  1  0  0  0  0
 13 12  2  0  0  0  0
 14 12  1  0  0  0  0
 15 14  1  0  0  0  0
 16 17  1  0  0  0  0
 19 18  1  0  0  0  0
 19 22  2  0  0  0  0
 20 18  1  0  0  0  0
 21 19  1  0  0  0  0
 24 23  1  0  0  0  0
 25  2  1  0  0  0  0
 25 26  1  0  0  0  0
 27 29  1  0  0  0  0
 27 28  1  0  0  0  0
 28 31  1  0  0  0  0
 30 28  2  0  0  0  0
 32 31  1  0  0  0  0
 33 32  1  0  0  0  0
 34 33  2  0  0  0  0
 35 33  1  0  0  0  0
 36 34  1  0  0  0  0
 37 36  1  0  0  0  0
 37 35  2  0  0  0  0
 38 39  1  0  0  0  0
 38 36  1  0  0  0  0
 40 38  2  0  0  0  0
 41 39  2  0  0  0  0
 42 43  2  0  0  0  0
 42 40  1  0  0  0  0
 43 41  1  0  0  0  0
 44 43  1  0  0  0  0
 45 46  1  0  0  0  0
 47 46  1  0  0  0  0
 47 48  1  0  0  0  0
 49 50  1  0  0  0  0
 49 48  1  0  0  0  0
M  END
>  <REMARK>
 VINA RESULT:    -5.291      5.078      8.226
 INTER + INTRA:         -14.319
 INTER:                  -8.659
 INTRA:                  -5.660
 UNBOUND:                -5.161
 SMILES CC(=O)N[C@@H]1[C@@H](O)C[C@](O)(C(=O)O)O[C@H]1C(O)[C@H](O)CNC(=O)OCc1cn(-c2ccc(Br)cc2)nn1
 SMILES IDX 20 1 18 2 16 3 15 4 9 5 8 6 14 7 6 8 5 9 10 10 11 12 12 13
 SMILES IDX 13 14 7 16 4 18 2 19 1 21 3 22 17 23 19 25 21 27 22 28 23 30
 SMILES IDX 24 31 25 32 26 33 27 34 37 35 28 36 36 37 29 38 30 39 35 40
 SMILES IDX 31 41 34 42 32 43 33 44
 H PARENT 10 11 13 15 7 17 4 20 17 24 19 26 21 29
 Flexibility Score: inf
  4 active torsions:
  status: ('A' for Active; 'I' for Inactive)
    1  A    between atoms: CA   and  CB  
    2  A    between atoms: CB   and  CG  
    3  A    between atoms: CG   and  CD  
    4  A    between atoms: CD   and  CE  

>  <TORSDO>
F 15

>  <BEGIN_>
RES LYS A 131

$$$$
ligand_15_pose_9_2HRL.pdbqt
 OpenBabel07062320523D

  6  5  0  0  0  0  0  0  0  0999 V2000
   33.1930   34.6630    9.2900 C   0  0  0  0  0  0  0  0  0  0  0  0
   32.0600   35.3600   10.0340 C   0  0  0  0  0  0  0  0  0  0  0  0
   30.7310   35.2700    9.3290 C   0  0  0  0  0  0  0  0  0  0  0  0
   29.6200   34.9480   10.3160 C   0  0  0  0  0  0  0  0  0  0  0  0
   28.5970   34.0250    9.6840 C   0  0  0  0  0  0  0  0  0  0  0  0
   28.2020   34.5070    8.3320 N   0  0  0  0  0  0  0  0  0  0  0  0
  1  2  1  0  0  0  0
  3  2  1  0  0  0  0
  3  4  1  0  0  0  0
  5  4  1  0  0  0  0
  6  5  1  0  0  0  0
M  END
>  <EGIN_R>
ES LYS A 135

>  <REMARK>
  4 active torsions:
  status: ('A' for Active; 'I' for Inactive)
    5  A    between atoms: CA   and  CB  
    6  A    between atoms: CB   and  CG  
    7  A    between atoms: CG   and  CD  
    8  A    between atoms: CD   and  CE  

$$$$
