ligand_45_pose_19_2HRL.pdbqt
 OpenBabel07062320523D

 52 52  0  0  1  0  0  0  0  0999 V2000
   32.2540   33.3930   15.4140 O   0  0  0  0  0  0  0  0  0  0  0  0
   31.3750   33.3020   16.4740 C   0  0  0  0  0  0  0  0  0  0  0  0
   30.1590   32.5500   16.3940 N   0  0  0  0  0  0  0  0  0  0  0  0
   29.9830   32.0740   15.5020 H   0  0  0  0  0  0  0  0  0  0  0  0
   31.6540   33.8990   17.5400 O   0  0  0  0  0  0  0  0  0  0  0  0
   29.3080   32.5040   17.5240 C   0  0  0  0  0  0  0  0  0  0  0  0
   29.3570   31.2640   18.3540 C   0  0  2  0  0  0  0  0  0  0  0  0
   29.6250   31.4690   19.8120 C   0  0  1  0  0  0  0  0  0  0  0  0
   30.0460   30.2390   20.5590 C   0  0  2  0  0  0  0  0  0  0  0  0
   31.8840   28.9420   21.0330 C   0  0  2  0  0  0  0  0  0  0  0  0
   30.8820   28.3870   22.0280 C   0  0  0  0  0  0  0  0  0  0  0  0
   31.3870   30.0260   20.3510 O   0  0  0  0  0  0  0  0  0  0  0  0
   29.6260   27.9610   21.3330 C   0  0  1  0  0  0  0  0  0  0  0  0
   29.2650   29.0040   20.2730 C   0  0  1  0  0  0  0  0  0  0  0  0
   32.1500   27.9190   20.1050 O   0  0  0  0  0  0  0  0  0  0  0  0
   31.2730   27.6880   19.7020 H   0  0  0  0  0  0  0  0  0  0  0  0
   33.1370   29.2840   21.7250 C   0  0  0  0  0  0  0  0  0  0  0  0
   33.6080   30.4530   21.6500 O   0  0  0  0  0  0  0  0  0  0  0  0
   33.8290   28.3530   22.4710 O   0  0  0  0  0  0  0  0  0  0  0  0
   34.3590   28.6220   23.2780 H   0  0  0  0  0  0  0  0  0  0  0  0
   29.8470   26.7130   20.7340 O   0  0  0  0  0  0  0  0  0  0  0  0
   30.2120   26.0910   21.4000 H   0  0  0  0  0  0  0  0  0  0  0  0
   27.8250   29.2160   20.4530 N   0  0  0  0  0  0  0  0  0  0  0  0
   26.8900   28.4290   19.7410 C   0  0  0  0  0  0  0  0  0  0  0  0
   27.5020   29.9580   21.1150 H   0  0  0  0  0  0  0  0  0  0  0  0
   25.4220   28.6600   19.9330 C   0  0  0  0  0  0  0  0  0  0  0  0
   27.2270   27.5140   18.9280 O   0  0  0  0  0  0  0  0  0  0  0  0
   30.5840   32.4830   19.9590 O   0  0  0  0  0  0  0  0  0  0  0  0
   30.5740   32.7580   20.9170 H   0  0  0  0  0  0  0  0  0  0  0  0
   30.3580   30.4430   17.7920 O   0  0  0  0  0  0  0  0  0  0  0  0
   31.1620   30.9450   17.5490 H   0  0  0  0  0  0  0  0  0  0  0  0
   32.4270   34.6480   14.7700 C   0  0  0  0  0  0  0  0  0  0  0  0
   31.1860   35.0230   14.0550 C   0  0  0  0  0  0  0  0  0  0  0  0
   30.6850   36.2700   13.7490 C   0  0  0  0  0  0  0  0  0  0  0  0
   30.2780   34.1600   13.5540 N   0  0  0  0  0  0  0  0  0  0  0  0
   29.5180   36.1470   13.0870 N   0  0  0  0  0  0  0  0  0  0  0  0
   29.3080   34.8510   12.9910 N   0  0  0  0  0  0  0  0  0  0  0  0
   28.6530   37.1640   12.5840 C   0  0  0  0  0  0  0  0  0  0  0  0
   27.9570   36.8040   11.3280 C   0  0  0  0  0  0  0  0  0  0  0  0
   26.9290   37.7160   10.8000 C   0  0  0  0  0  0  0  0  0  0  0  0
   25.8720   37.2370   10.0090 N   0  0  0  0  0  0  0  0  0  0  0  0
   25.8970   35.8420    9.6600 C   0  0  0  0  0  0  0  0  0  0  0  0
   24.6540   37.3910   10.8280 C   0  0  0  0  0  0  0  0  0  0  0  0
   24.3830   38.7780   11.2680 C   0  0  0  0  0  0  0  0  0  0  0  0
   25.6440   37.9980    8.8120 C   0  0  0  0  0  0  0  0  0  0  0  0
   25.4500   37.1920    7.5790 C   0  0  0  0  0  0  0  0  0  0  0  0
   29.8670   25.5550   16.9770 C   0  0  0  0  0  0  0  0  0  0  0  0
   28.3450   25.7220   17.0260 C   0  0  0  0  0  0  0  0  0  0  0  0
   27.6010   24.4030   16.8880 C   0  0  0  0  0  0  0  0  0  0  0  0
   26.5690   24.2190   17.9660 C   0  0  0  0  0  0  0  0  0  0  0  0
   25.2010   23.9980   17.3280 C   0  0  0  0  0  0  0  0  0  0  0  0
   24.7660   22.5920   17.5070 N   0  0  0  0  0  0  0  0  0  0  0  0
  1  2  1  0  0  0  0
  2  5  2  0  0  0  0
  3  2  1  0  0  0  0
  3  6  1  0  0  0  0
  4  3  1  0  0  0  0
  7  6  1  6  0  0  0
  7  8  1  0  0  0  0
  8 28  1  6  0  0  0
  9  8  1  6  0  0  0
 10 15  1  6  0  0  0
 10 17  1  0  0  0  0
 10 11  1  0  0  0  0
 12  9  1  0  0  0  0
 12 10  1  0  0  0  0
 13 21  1  6  0  0  0
 13 11  1  0  0  0  0
 14 23  1  1  0  0  0
 14  9  1  0  0  0  0
 14 13  1  0  0  0  0
 16 15  1  0  0  0  0
 17 19  1  0  0  0  0
 18 17  2  0  0  0  0
 19 20  1  0  0  0  0
 21 22  1  0  0  0  0
 23 25  1  0  0  0  0
 24 26  1  0  0  0  0
 24 23  1  0  0  0  0
 27 24  2  0  0  0  0
 28 29  1  0  0  0  0
 30  7  1  0  0  0  0
 31 30  1  0  0  0  0
 32  1  1  0  0  0  0
 33 32  1  0  0  0  0
 34 33  2  0  0  0  0
 35 33  1  0  0  0  0
 36 34  1  0  0  0  0
 37 36  1  0  0  0  0
 37 35  2  0  0  0  0
 38 36  1  0  0  0  0
 39 38  1  0  0  0  0
 40 39  1  0  0  0  0
 41 40  1  0  0  0  0
 41 43  1  0  0  0  0
 42 41  1  0  0  0  0
 43 44  1  0  0  0  0
 45 41  1  0  0  0  0
 46 45  1  0  0  0  0
 47 48  1  0  0  0  0
 49 48  1  0  0  0  0
 49 50  1  0  0  0  0
 51 52  1  0  0  0  0
 51 50  1  0  0  0  0
M  END
>  <REMARK>
 VINA RESULT:    -3.939      2.747      5.944
 INTER + INTRA:         -13.844
 INTER:                  -9.128
 INTRA:                  -4.717
 UNBOUND:                -5.875
 SMILES CC[N+](C)(CC)CCCn1cc(COC(=O)NC[C@@H](O)C(O)[C@@H]2O[C@@](O)(C(=O)O)C[C@H](O)[C@H]2NC(C)=O)nn1
 SMILES IDX 14 1 15 2 17 3 16 5 18 6 19 7 21 8 23 9 25 10 30 11 24 12
 SMILES IDX 31 13 33 14 26 15 27 17 28 18 29 19 32 21 34 23 35 24 36 26
 SMILES IDX 37 27 22 28 20 30 13 32 12 33 11 34 38 35 10 36 39 37 9 38
 SMILES IDX 8 39 7 40 3 41 4 42 2 43 1 44 5 45 6 46
 H PARENT 17 4 26 16 29 20 32 22 34 25 22 29 20 31
 Flexibility Score: inf
  4 active torsions:
  status: ('A' for Active; 'I' for Inactive)
    1  A    between atoms: CA   and  CB  
    2  A    between atoms: CB   and  CG  
    3  A    between atoms: CG   and  CD  
    4  A    between atoms: CD   and  CE  

>  <TORSDO>
F 20

>  <BEGIN_>
RES LYS A 131

$$$$
ligand_45_pose_19_2HRL.pdbqt
 OpenBabel07062320523D

  6  5  0  0  0  0  0  0  0  0999 V2000
   33.1930   34.6630    9.2900 C   0  0  0  0  0  0  0  0  0  0  0  0
   32.0600   35.3600   10.0340 C   0  0  0  0  0  0  0  0  0  0  0  0
   30.7040   34.7610    9.7640 C   0  0  0  0  0  0  0  0  0  0  0  0
   30.4930   34.5600    8.2710 C   0  0  0  0  0  0  0  0  0  0  0  0
   29.0880   34.9670    7.8720 C   0  0  0  0  0  0  0  0  0  0  0  0
   29.0190   36.4200    7.5540 N   0  0  0  0  0  0  0  0  0  0  0  0
  1  2  1  0  0  0  0
  3  2  1  0  0  0  0
  4  3  1  0  0  0  0
  5  4  1  0  0  0  0
  6  5  1  0  0  0  0
M  END
>  <EGIN_R>
ES LYS A 135

>  <REMARK>
  4 active torsions:
  status: ('A' for Active; 'I' for Inactive)
    5  A    between atoms: CA   and  CB  
    6  A    between atoms: CB   and  CG  
    7  A    between atoms: CG   and  CD  
    8  A    between atoms: CD   and  CE  

$$$$
