ligand_7_pose_3_2HRL.pdbqt
 OpenBabel07062320523D

 52 53  0  0  1  0  0  0  0  0999 V2000
   24.9610   36.9420   10.6370 C   0  0  0  0  0  0  0  0  0  0  0  0
   24.5870   36.4560    9.2840 C   0  0  2  0  0  0  0  0  0  0  0  0
   25.2580   37.1490    8.1420 C   0  0  1  0  0  0  0  0  0  0  0  0
   26.4720   36.4930    7.6000 C   0  0  2  0  0  0  0  0  0  0  0  0
   28.4140   35.5270    8.4760 C   0  0  2  0  0  0  0  0  0  0  0  0
   29.0660   35.5580    7.1230 C   0  0  0  0  0  0  0  0  0  0  0  0
   27.0540   35.6120    8.4640 O   0  0  0  0  0  0  0  0  0  0  0  0
   28.4120   36.4890    6.1600 C   0  0  1  0  0  0  0  0  0  0  0  0
   27.4610   37.4100    6.9460 C   0  0  1  0  0  0  0  0  0  0  0  0
   28.9660   36.5530    9.2390 O   0  0  0  0  0  0  0  0  0  0  0  0
   29.8820   36.7360    8.8800 H   0  0  0  0  0  0  0  0  0  0  0  0
   28.7830   34.2290    9.1000 C   0  0  0  0  0  0  0  0  0  0  0  0
   29.9690   33.8420    9.1040 O   0  0  0  0  0  0  0  0  0  0  0  0
   27.8090   33.4150    9.6930 O   0  0  0  0  0  0  0  0  0  0  0  0
   27.2820   33.7890   10.4960 H   0  0  0  0  0  0  0  0  0  0  0  0
   29.2870   37.2090    5.3720 O   0  0  0  0  0  0  0  0  0  0  0  0
   28.7360   37.8240    4.8020 H   0  0  0  0  0  0  0  0  0  0  0  0
   26.8490   38.2490    5.9490 N   0  0  0  0  0  0  0  0  0  0  0  0
   26.9170   39.6580    6.1190 C   0  0  0  0  0  0  0  0  0  0  0  0
   26.3580   37.8600    5.1060 H   0  0  0  0  0  0  0  0  0  0  0  0
   26.3150   40.6090    5.1480 C   0  0  0  0  0  0  0  0  0  0  0  0
   27.4990   40.1510    7.1170 O   0  0  0  0  0  0  0  0  0  0  0  0
   24.3190   37.3040    7.1250 O   0  0  0  0  0  0  0  0  0  0  0  0
   23.6050   37.9000    7.4610 H   0  0  0  0  0  0  0  0  0  0  0  0
   23.2010   36.3900    9.1320 O   0  0  0  0  0  0  0  0  0  0  0  0
   22.8970   35.4800    8.8890 H   0  0  0  0  0  0  0  0  0  0  0  0
   26.1410   36.2900   11.1690 N   0  0  0  0  0  0  0  0  0  0  0  0
   26.0830   35.1340   11.9980 C   0  0  0  0  0  0  0  0  0  0  0  0
   27.1240   36.6420   10.9680 H   0  0  0  0  0  0  0  0  0  0  0  0
   24.9850   34.6320   12.3010 O   0  0  0  0  0  0  0  0  0  0  0  0
   27.2490   34.5380   12.4870 O   0  0  0  0  0  0  0  0  0  0  0  0
   28.3790   35.3690   12.7950 C   0  0  0  0  0  0  0  0  0  0  0  0
   29.2950   34.6000   13.6750 C   0  0  0  0  0  0  0  0  0  0  0  0
   29.0120   34.1900   14.9670 C   0  0  0  0  0  0  0  0  0  0  0  0
   30.5190   34.1630   13.4160 N   0  0  0  0  0  0  0  0  0  0  0  0
   30.0590   33.5220   15.4580 N   0  0  0  0  0  0  0  0  0  0  0  0
   30.9640   33.5310   14.4650 N   0  0  0  0  0  0  0  0  0  0  0  0
   30.2430   32.9140   16.7300 C   0  0  0  0  0  0  0  0  0  0  0  0
   30.8050   33.6270   17.7650 C   0  0  0  0  0  0  0  0  0  0  0  0
   29.8720   31.6010   16.9740 C   0  0  0  0  0  0  0  0  0  0  0  0
   31.2090   35.0310   17.5320 C   0  0  0  0  0  0  0  0  0  0  0  0
   30.9860   33.0240   19.0170 C   0  0  0  0  0  0  0  0  0  0  0  0
   30.0540   31.0160   18.2120 C   0  0  0  0  0  0  0  0  0  0  0  0
   29.2590   30.8380   15.8290 C   0  0  0  0  0  0  0  0  0  0  0  0
   30.6150   31.7180   19.2560 C   0  0  0  0  0  0  0  0  0  0  0  0
   30.8190   31.0980   20.6000 C   0  0  0  0  0  0  0  0  0  0  0  0
   29.8670   25.5550   16.9770 C   0  0  0  0  0  0  0  0  0  0  0  0
   28.3450   25.7220   17.0260 C   0  0  0  0  0  0  0  0  0  0  0  0
   27.6010   24.4010   16.8980 C   0  0  0  0  0  0  0  0  0  0  0  0
   26.1500   24.5300   17.2690 C   0  0  0  0  0  0  0  0  0  0  0  0
   25.9930   25.5970   18.3480 C   0  0  0  0  0  0  0  0  0  0  0  0
   24.9040   26.5370   17.9930 N   0  0  0  0  0  0  0  0  0  0  0  0
  1 27  1  0  0  0  0
  2  1  1  1  0  0  0
  3 23  1  6  0  0  0
  3  2  1  0  0  0  0
  4  3  1  1  0  0  0
  4  7  1  0  0  0  0
  5 12  1  1  0  0  0
  5 10  1  0  0  0  0
  6  5  1  0  0  0  0
  7  5  1  0  0  0  0
  8 16  1  1  0  0  0
  8  9  1  0  0  0  0
  8  6  1  0  0  0  0
  9 18  1  6  0  0  0
  9  4  1  0  0  0  0
 11 10  1  0  0  0  0
 12 13  2  0  0  0  0
 12 14  1  0  0  0  0
 14 15  1  0  0  0  0
 17 16  1  0  0  0  0
 18 19  1  0  0  0  0
 19 22  2  0  0  0  0
 20 18  1  0  0  0  0
 21 19  1  0  0  0  0
 23 24  1  0  0  0  0
 25  2  1  0  0  0  0
 26 25  1  0  0  0  0
 27 28  1  0  0  0  0
 28 30  2  0  0  0  0
 28 31  1  0  0  0  0
 29 27  1  0  0  0  0
 31 32  1  0  0  0  0
 32 33  1  0  0  0  0
 33 34  2  0  0  0  0
 34 36  1  0  0  0  0
 35 33  1  0  0  0  0
 35 37  2  0  0  0  0
 36 38  1  0  0  0  0
 37 36  1  0  0  0  0
 38 40  2  0  0  0  0
 38 39  1  0  0  0  0
 39 42  2  0  0  0  0
 40 43  1  0  0  0  0
 41 39  1  0  0  0  0
 42 45  1  0  0  0  0
 43 45  2  0  0  0  0
 44 40  1  0  0  0  0
 45 46  1  0  0  0  0
 47 48  1  0  0  0  0
 49 48  1  0  0  0  0
 49 50  1  0  0  0  0
 50 51  1  0  0  0  0
 52 51  1  0  0  0  0
M  END
>  <REMARK>
 VINA RESULT:    -4.982      5.904     12.304
 INTER + INTRA:         -14.540
 INTER:                 -10.872
 INTRA:                  -3.668
 UNBOUND:                -5.917
 SMILES CC(=O)N[C@@H]1[C@@H](O)C[C@](O)(C(=O)O)O[C@H]1C(O)[C@H](O)CNC(=O)OCc1cn(-c2c(C)cc(C)cc2C)nn1
 SMILES IDX 20 1 18 2 16 3 15 4 9 5 8 6 14 7 6 8 5 9 10 10 11 12 12 13
 SMILES IDX 13 14 7 16 4 18 2 19 1 21 3 22 17 23 19 25 21 27 22 28 23 30
 SMILES IDX 24 31 25 32 26 33 27 34 39 35 28 36 38 37 29 38 30 39 36 40
 SMILES IDX 31 41 32 42 35 43 37 44 33 45 34 46
 H PARENT 10 11 13 15 7 17 4 20 17 24 19 26 21 29
 Flexibility Score: inf
  4 active torsions:
  status: ('A' for Active; 'I' for Inactive)
    1  A    between atoms: CA   and  CB  
    2  A    between atoms: CB   and  CG  
    3  A    between atoms: CG   and  CD  
    4  A    between atoms: CD   and  CE  

>  <TORSDO>
F 15

>  <BEGIN_>
RES LYS A 131

$$$$
ligand_7_pose_3_2HRL.pdbqt
 OpenBabel07062320523D

  6  5  0  0  0  0  0  0  0  0999 V2000
   33.1930   34.6630    9.2900 C   0  0  0  0  0  0  0  0  0  0  0  0
   32.0600   35.3600   10.0340 C   0  0  0  0  0  0  0  0  0  0  0  0
   32.5100   36.0810   11.2780 C   0  0  0  0  0  0  0  0  0  0  0  0
   31.9150   37.4790   11.3340 C   0  0  0  0  0  0  0  0  0  0  0  0
   31.4150   37.7910   12.7310 C   0  0  0  0  0  0  0  0  0  0  0  0
   30.8480   39.1660   12.8040 N   0  0  0  0  0  0  0  0  0  0  0  0
  1  2  1  0  0  0  0
  2  3  1  0  0  0  0
  3  4  1  0  0  0  0
  4  5  1  0  0  0  0
  5  6  1  0  0  0  0
M  END
>  <EGIN_R>
ES LYS A 135

>  <REMARK>
  4 active torsions:
  status: ('A' for Active; 'I' for Inactive)
    5  A    between atoms: CA   and  CB  
    6  A    between atoms: CB   and  CG  
    7  A    between atoms: CG   and  CD  
    8  A    between atoms: CD   and  CE  

$$$$
