ligand_43_pose_18_2HRL.pdbqt
 OpenBabel07062320523D

 49 49  0  0  1  0  0  0  0  0999 V2000
   26.3160   28.9070   17.7450 O   0  0  0  0  0  0  0  0  0  0  0  0
   26.3070   27.8960   18.6870 C   0  0  0  0  0  0  0  0  0  0  0  0
   25.0950   27.7040   19.4300 N   0  0  0  0  0  0  0  0  0  0  0  0
   24.2890   28.3260   19.2290 H   0  0  0  0  0  0  0  0  0  0  0  0
   27.3260   27.1610   18.8940 O   0  0  0  0  0  0  0  0  0  0  0  0
   24.9770   26.6930   20.4250 C   0  0  0  0  0  0  0  0  0  0  0  0
   24.8570   27.2400   21.8490 C   0  0  2  0  0  0  0  0  0  0  0  0
   26.2330   27.1130   22.4530 C   0  0  2  0  0  0  0  0  0  0  0  0
   26.9110   28.4200   22.7030 C   0  0  2  0  0  0  0  0  0  0  0  0
   27.6670   30.1470   21.3490 C   0  0  2  0  0  0  0  0  0  0  0  0
   28.4320   30.5670   22.5860 C   0  0  0  0  0  0  0  0  0  0  0  0
   26.6270   29.3020   21.6950 O   0  0  0  0  0  0  0  0  0  0  0  0
   29.2120   29.3640   23.0640 C   0  0  1  0  0  0  0  0  0  0  0  0
   28.4130   28.1130   22.7830 C   0  0  1  0  0  0  0  0  0  0  0  0
   28.5150   29.5850   20.4000 O   0  0  0  0  0  0  0  0  0  0  0  0
   29.4500   29.6560   20.6960 H   0  0  0  0  0  0  0  0  0  0  0  0
   27.1050   31.3850   20.7510 C   0  0  0  0  0  0  0  0  0  0  0  0
   27.2000   32.5060   21.3120 O   0  0  0  0  0  0  0  0  0  0  0  0
   26.4310   31.3780   19.5180 O   0  0  0  0  0  0  0  0  0  0  0  0
   26.1390   30.4760   19.1510 H   0  0  0  0  0  0  0  0  0  0  0  0
   30.3910   29.2790   22.3460 O   0  0  0  0  0  0  0  0  0  0  0  0
   30.1900   29.1110   21.3930 H   0  0  0  0  0  0  0  0  0  0  0  0
   28.6010   27.1110   23.8160 N   0  0  0  0  0  0  0  0  0  0  0  0
   29.6660   26.1660   23.8020 C   0  0  0  0  0  0  0  0  0  0  0  0
   27.9450   27.0340   24.6440 H   0  0  0  0  0  0  0  0  0  0  0  0
   29.8490   25.1390   24.8710 C   0  0  0  0  0  0  0  0  0  0  0  0
   30.4660   26.2310   22.8280 O   0  0  0  0  0  0  0  0  0  0  0  0
   26.9630   26.2830   21.5860 O   0  0  0  0  0  0  0  0  0  0  0  0
   26.3680   25.7680   20.9850 H   0  0  0  0  0  0  0  0  0  0  0  0
   23.8700   26.5930   22.5620 O   0  0  0  0  0  0  0  0  0  0  0  0
   23.6070   25.7220   22.2210 H   0  0  0  0  0  0  0  0  0  0  0  0
   27.1260   28.8070   16.6040 C   0  0  0  0  0  0  0  0  0  0  0  0
   28.0730   29.9700   16.6440 C   0  0  0  0  0  0  0  0  0  0  0  0
   28.5200   30.6400   15.5160 C   0  0  0  0  0  0  0  0  0  0  0  0
   28.6520   30.5760   17.6800 N   0  0  0  0  0  0  0  0  0  0  0  0
   29.3470   31.6190   15.9050 N   0  0  0  0  0  0  0  0  0  0  0  0
   29.4080   31.5570   17.2210 N   0  0  0  0  0  0  0  0  0  0  0  0
   30.0700   32.5930   15.1020 C   0  0  0  0  0  0  0  0  0  0  0  0
   31.5220   32.6090   15.5010 C   0  0  0  0  0  0  0  0  0  0  0  0
   32.1800   33.9160   15.1360 C   0  0  0  0  0  0  0  0  0  0  0  0
   32.4170   34.7940   16.3360 C   0  0  0  0  0  0  0  0  0  0  0  0
   33.4270   35.8290   16.0180 C   0  0  0  0  0  0  0  0  0  0  0  0
   34.4030   36.1490   16.8380 C   0  0  0  0  0  0  0  0  0  0  0  0
   29.8670   25.5550   16.9770 C   0  0  0  0  0  0  0  0  0  0  0  0
   28.3450   25.7220   17.0260 C   0  0  0  0  0  0  0  0  0  0  0  0
   27.5990   24.4800   16.5630 C   0  0  0  0  0  0  0  0  0  0  0  0
   27.2290   23.5810   17.7110 C   0  0  0  0  0  0  0  0  0  0  0  0
   25.7790   23.8340   18.1080 C   0  0  0  0  0  0  0  0  0  0  0  0
   25.0130   24.3750   16.9600 N   0  0  0  0  0  0  0  0  0  0  0  0
  1  2  1  0  0  0  0
  2  5  2  0  0  0  0
  2  3  1  0  0  0  0
  3  6  1  0  0  0  0
  4  3  1  0  0  0  0
  7  6  1  6  0  0  0
  7  8  1  0  0  0  0
  7 30  1  0  0  0  0
  8 28  1  6  0  0  0
  9  8  1  6  0  0  0
  9 14  1  0  0  0  0
 10 15  1  6  0  0  0
 10 12  1  0  0  0  0
 10 11  1  0  0  0  0
 11 13  1  0  0  0  0
 12  9  1  0  0  0  0
 13 21  1  6  0  0  0
 14 13  1  0  0  0  0
 14 23  1  1  0  0  0
 15 16  1  0  0  0  0
 17 18  2  0  0  0  0
 17 10  1  0  0  0  0
 19 17  1  0  0  0  0
 20 19  1  0  0  0  0
 22 21  1  0  0  0  0
 23 25  1  0  0  0  0
 24 23  1  0  0  0  0
 24 26  1  0  0  0  0
 27 24  2  0  0  0  0
 29 28  1  0  0  0  0
 31 30  1  0  0  0  0
 32 33  1  0  0  0  0
 32  1  1  0  0  0  0
 33 35  1  0  0  0  0
 34 36  1  0  0  0  0
 34 33  2  0  0  0  0
 36 37  1  0  0  0  0
 37 35  2  0  0  0  0
 38 39  1  0  0  0  0
 38 36  1  0  0  0  0
 40 39  1  0  0  0  0
 40 41  1  0  0  0  0
 42 41  1  0  0  0  0
 42 43  2  0  0  0  0
 44 45  1  0  0  0  0
 46 45  1  0  0  0  0
 46 47  1  0  0  0  0
 47 48  1  0  0  0  0
 49 48  1  0  0  0  0
M  END
>  <REMARK>
 VINA RESULT:    -4.675      4.895      8.718
 INTER + INTRA:         -13.970
 INTER:                  -7.045
 INTRA:                  -6.925
 UNBOUND:                -4.785
 SMILES C=CCCCCn1cc(COC(=O)NC[C@@H](O)C(O)[C@@H]2O[C@@](O)(C(=O)O)C[C@H](O)[C@H]2NC(C)=O)nn1
 SMILES IDX 11 1 12 2 14 3 13 5 15 6 16 7 18 8 20 9 22 10 27 11 21 12
 SMILES IDX 28 13 30 14 23 15 24 17 25 18 26 19 29 21 31 23 32 24 33 26
 SMILES IDX 34 27 19 28 17 30 10 32 9 33 8 34 35 35 7 36 36 37 6 38 5 39
 SMILES IDX 4 40 3 41 2 42 1 43
 H PARENT 14 4 23 16 26 20 29 22 31 25 19 29 17 31
 Flexibility Score: inf
  4 active torsions:
  status: ('A' for Active; 'I' for Inactive)
    1  A    between atoms: CA   and  CB  
    2  A    between atoms: CB   and  CG  
    3  A    between atoms: CG   and  CD  
    4  A    between atoms: CD   and  CE  

>  <TORSDO>
F 19

>  <BEGIN_>
RES LYS A 131

$$$$
ligand_43_pose_18_2HRL.pdbqt
 OpenBabel07062320523D

  6  5  0  0  0  0  0  0  0  0999 V2000
   33.1930   34.6630    9.2900 C   0  0  0  0  0  0  0  0  0  0  0  0
   32.0600   35.3600   10.0340 C   0  0  0  0  0  0  0  0  0  0  0  0
   30.7090   34.7370    9.7940 C   0  0  0  0  0  0  0  0  0  0  0  0
   30.4660   34.5390    8.3060 C   0  0  0  0  0  0  0  0  0  0  0  0
   29.0200   34.8360    7.9580 C   0  0  0  0  0  0  0  0  0  0  0  0
   28.9170   35.5500    6.6560 N   0  0  0  0  0  0  0  0  0  0  0  0
  1  2  1  0  0  0  0
  3  2  1  0  0  0  0
  4  3  1  0  0  0  0
  5  4  1  0  0  0  0
  6  5  1  0  0  0  0
M  END
>  <EGIN_R>
ES LYS A 135

>  <REMARK>
  4 active torsions:
  status: ('A' for Active; 'I' for Inactive)
    5  A    between atoms: CA   and  CB  
    6  A    between atoms: CB   and  CG  
    7  A    between atoms: CG   and  CD  
    8  A    between atoms: CD   and  CE  

$$$$
