ligand_76_pose_8_2HRL.pdbqt
 OpenBabel07062320523D

 55 56  0  0  1  0  0  0  0  0999 V2000
   27.2620   29.4820   18.5800 O   0  0  0  0  0  0  0  0  0  0  0  0
   27.9820   29.7750   17.4360 C   0  0  0  0  0  0  0  0  0  0  0  0
   29.0330   30.7150   17.4660 N   0  0  0  0  0  0  0  0  0  0  0  0
   29.2630   31.1880   18.3580 H   0  0  0  0  0  0  0  0  0  0  0  0
   27.7040   29.2030   16.3570 O   0  0  0  0  0  0  0  0  0  0  0  0
   29.8170   31.0500   16.2850 C   0  0  0  0  0  0  0  0  0  0  0  0
   29.2530   32.2760   15.5920 C   0  0  2  0  0  0  0  0  0  0  0  0
   30.3210   32.8250   14.6600 C   0  0  1  0  0  0  0  0  0  0  0  0
   30.6130   34.2910   14.9960 C   0  0  2  0  0  0  0  0  0  0  0  0
   30.2110   35.6500   13.1410 C   0  0  2  0  0  0  0  0  0  0  0  0
   31.5430   35.2140   12.6400 C   0  0  0  0  0  0  0  0  0  0  0  0
   29.8250   35.1690   14.3410 O   0  0  0  0  0  0  0  0  0  0  0  0
   32.5940   35.1500   13.6900 C   0  0  1  0  0  0  0  0  0  0  0  0
   32.0910   34.5260   14.9640 C   0  0  1  0  0  0  0  0  0  0  0  0
   29.2550   35.2430   12.1790 O   0  0  0  0  0  0  0  0  0  0  0  0
   28.4270   35.7770   12.2930 H   0  0  0  0  0  0  0  0  0  0  0  0
   30.1870   37.1570   13.1180 C   0  0  0  0  0  0  0  0  0  0  0  0
   30.6310   37.8590   14.0560 O   0  0  0  0  0  0  0  0  0  0  0  0
   29.6580   37.8530   12.0270 O   0  0  0  0  0  0  0  0  0  0  0  0
   28.7030   37.6500   11.6980 H   0  0  0  0  0  0  0  0  0  0  0  0
   33.7040   34.4470   13.1670 O   0  0  0  0  0  0  0  0  0  0  0  0
   34.1510   33.9150   13.8910 H   0  0  0  0  0  0  0  0  0  0  0  0
   32.5130   35.2940   16.1370 N   0  0  0  0  0  0  0  0  0  0  0  0
   32.2870   34.8340   17.4420 C   0  0  0  0  0  0  0  0  0  0  0  0
   32.9980   36.2190   15.9410 H   0  0  0  0  0  0  0  0  0  0  0  0
   32.7290   35.6430   18.5910 C   0  0  0  0  0  0  0  0  0  0  0  0
   31.7150   33.7450   17.6400 O   0  0  0  0  0  0  0  0  0  0  0  0
   31.5000   32.1390   15.0020 O   0  0  0  0  0  0  0  0  0  0  0  0
   31.3080   31.1930   15.2810 H   0  0  0  0  0  0  0  0  0  0  0  0
   28.9000   33.2360   16.5320 O   0  0  0  0  0  0  0  0  0  0  0  0
   28.7370   34.0780   16.0450 H   0  0  0  0  0  0  0  0  0  0  0  0
   26.7300   30.6090   19.2960 C   0  0  0  0  0  0  0  0  0  0  0  0
   26.2960   31.6560   18.3460 C   0  0  0  0  0  0  0  0  0  0  0  0
   25.3910   31.5770   17.3140 C   0  0  0  0  0  0  0  0  0  0  0  0
   26.7500   32.9220   18.3520 N   0  0  0  0  0  0  0  0  0  0  0  0
   25.3190   32.7810   16.7260 N   0  0  0  0  0  0  0  0  0  0  0  0
   26.1320   33.5690   17.3560 N   0  0  0  0  0  0  0  0  0  0  0  0
   24.4800   33.1750   15.5730 C   0  0  0  0  0  0  0  0  0  0  0  0
   25.2830   32.9830   14.3240 C   0  0  2  0  0  0  0  0  0  0  0  0
   26.1590   34.0530   14.0950 O   0  0  0  0  0  0  0  0  0  0  0  0
   26.6120   33.8790   13.2200 H   0  0  0  0  0  0  0  0  0  0  0  0
   24.6180   32.4000   13.1800 C   0  0  0  0  0  0  0  0  0  0  0  0
   24.3310   30.9610   13.1610 C   0  0  0  0  0  0  0  0  0  0  0  0
   22.9620   30.6000   12.8350 C   0  0  0  0  0  0  0  0  0  0  0  0
   22.6870   29.2610   12.5320 C   0  0  0  0  0  0  0  0  0  0  0  0
   21.9170   31.4640   12.7270 C   0  0  0  0  0  0  0  0  0  0  0  0
   21.4280   28.8620   12.1490 C   0  0  0  0  0  0  0  0  0  0  0  0
   20.6430   31.0830   12.3440 C   0  0  0  0  0  0  0  0  0  0  0  0
   20.3900   29.7590   12.0490 C   0  0  0  0  0  0  0  0  0  0  0  0
   29.8670   25.5550   16.9770 C   0  0  0  0  0  0  0  0  0  0  0  0
   28.3450   25.7220   17.0260 C   0  0  0  0  0  0  0  0  0  0  0  0
   27.6020   24.4000   16.9100 C   0  0  0  0  0  0  0  0  0  0  0  0
   26.6500   24.1830   18.0540 C   0  0  0  0  0  0  0  0  0  0  0  0
   25.2740   24.7260   17.6820 C   0  0  0  0  0  0  0  0  0  0  0  0
   24.4790   23.6890   16.9820 N   0  0  0  0  0  0  0  0  0  0  0  0
  1 32  1  0  0  0  0
  2  3  1  0  0  0  0
  2  1  1  0  0  0  0
  3  4  1  0  0  0  0
  5  2  2  0  0  0  0
  6  3  1  0  0  0  0
  7  6  1  1  0  0  0
  7 30  1  0  0  0  0
  8 28  1  1  0  0  0
  8  7  1  0  0  0  0
  9  8  1  6  0  0  0
 10 15  1  6  0  0  0
 10 12  1  0  0  0  0
 11 10  1  0  0  0  0
 11 13  1  0  0  0  0
 12  9  1  0  0  0  0
 13 21  1  6  0  0  0
 13 14  1  0  0  0  0
 14  9  1  0  0  0  0
 14 23  1  1  0  0  0
 15 16  1  0  0  0  0
 17 10  1  0  0  0  0
 17 18  2  0  0  0  0
 19 17  1  0  0  0  0
 20 19  1  0  0  0  0
 21 22  1  0  0  0  0
 23 24  1  0  0  0  0
 24 27  2  0  0  0  0
 24 26  1  0  0  0  0
 25 23  1  0  0  0  0
 28 29  1  0  0  0  0
 31 30  1  0  0  0  0
 33 35  1  0  0  0  0
 33 32  1  0  0  0  0
 34 33  2  0  0  0  0
 36 34  1  0  0  0  0
 36 37  1  0  0  0  0
 37 35  2  0  0  0  0
 38 36  1  0  0  0  0
 39 42  1  6  0  0  0
 39 38  1  0  0  0  0
 40 39  1  0  0  0  0
 41 40  1  0  0  0  0
 43 42  1  0  0  0  0
 44 43  1  0  0  0  0
 45 44  2  0  0  0  0
 46 44  1  0  0  0  0
 47 45  1  0  0  0  0
 48 46  2  0  0  0  0
 49 47  2  0  0  0  0
 49 48  1  0  0  0  0
 50 51  1  0  0  0  0
 52 51  1  0  0  0  0
 52 53  1  0  0  0  0
 54 53  1  0  0  0  0
 55 54  1  0  0  0  0
M  END
>  <REMARK>
 VINA RESULT:    -5.071      5.287      9.809
 INTER + INTRA:         -16.882
 INTER:                 -10.825
 INTRA:                  -6.057
 UNBOUND:                -6.771
 SMILES CC(=O)N[C@@H]1[C@@H](O)C[C@](O)(C(=O)O)O[C@H]1C(O)[C@H](O)CNC(=O)OCc1cn(CC(O)CCc2ccccc2)nn1
 SMILES IDX 24 1 22 2 21 3 23 5 20 6 18 7 16 8 15 9 9 10 8 11 14 12 6 13
 SMILES IDX 5 14 10 15 11 17 12 18 13 19 7 21 4 23 2 24 1 26 3 27 17 28
 SMILES IDX 19 30 25 32 26 33 27 34 41 35 28 36 40 37 29 38 30 39 31 40
 SMILES IDX 32 42 33 43 34 44 35 45 39 46 36 47 38 48 37 49
 H PARENT 21 4 10 16 13 20 7 22 4 25 17 29 19 31 31 41
 Flexibility Score: inf
  4 active torsions:
  status: ('A' for Active; 'I' for Inactive)
    1  A    between atoms: CA   and  CB  
    2  A    between atoms: CB   and  CG  
    3  A    between atoms: CG   and  CD  
    4  A    between atoms: CD   and  CE  

>  <TORSDO>
F 20

>  <BEGIN_>
RES LYS A 131

$$$$
ligand_76_pose_8_2HRL.pdbqt
 OpenBabel07062320523D

  6  5  0  0  0  0  0  0  0  0999 V2000
   33.1930   34.6630    9.2900 C   0  0  0  0  0  0  0  0  0  0  0  0
   32.0600   35.3600   10.0340 C   0  0  0  0  0  0  0  0  0  0  0  0
   30.8290   35.5770    9.1910 C   0  0  0  0  0  0  0  0  0  0  0  0
   30.1720   34.2480    8.8510 C   0  0  0  0  0  0  0  0  0  0  0  0
   28.6890   34.4380    8.5950 C   0  0  0  0  0  0  0  0  0  0  0  0
   27.8730   33.6560    9.5650 N   0  0  0  0  0  0  0  0  0  0  0  0
  1  2  1  0  0  0  0
  3  2  1  0  0  0  0
  4  3  1  0  0  0  0
  5  4  1  0  0  0  0
  5  6  1  0  0  0  0
M  END
>  <EGIN_R>
ES LYS A 135

>  <REMARK>
  4 active torsions:
  status: ('A' for Active; 'I' for Inactive)
    5  A    between atoms: CA   and  CB  
    6  A    between atoms: CB   and  CG  
    7  A    between atoms: CG   and  CD  
    8  A    between atoms: CD   and  CE  

$$$$
