ligand_22_pose_1_2HRL.pdbqt
 OpenBabel07062320523D

 50 50  0  0  1  0  0  0  0  0999 V2000
   29.7100   31.9590   21.4260 N   0  0  0  0  0  0  0  0  0  0  0  0
   30.5380   31.6520   20.3210 C   0  0  0  0  0  0  0  0  0  0  0  0
   30.7250   30.4390   19.9640 O   0  0  0  0  0  0  0  0  0  0  0  0
   29.5620   32.9470   21.7060 H   0  0  0  0  0  0  0  0  0  0  0  0
   29.0890   30.8660   22.1290 C   0  0  0  0  0  0  0  0  0  0  0  0
   27.6040   30.9150   22.1970 C   0  0  2  0  0  0  0  0  0  0  0  0
   26.9330   29.6830   21.6430 C   0  0  1  0  0  0  0  0  0  0  0  0
   27.5440   29.3950   20.2670 C   0  0  2  0  0  0  0  0  0  0  0  0
   26.9720   29.6560   18.0270 C   0  0  2  0  0  0  0  0  0  0  0  0
   27.3940   28.2350   17.7230 C   0  0  0  0  0  0  0  0  0  0  0  0
   26.6160   29.8550   19.3400 O   0  0  0  0  0  0  0  0  0  0  0  0
   27.1020   27.3500   18.8990 C   0  0  1  0  0  0  0  0  0  0  0  0
   27.7970   27.9090   20.1240 C   0  0  1  0  0  0  0  0  0  0  0  0
   25.8160   29.8890   17.2650 O   0  0  0  0  0  0  0  0  0  0  0  0
   25.7590   30.8320   17.0250 H   0  0  0  0  0  0  0  0  0  0  0  0
   28.0080   30.6140   17.5850 C   0  0  0  0  0  0  0  0  0  0  0  0
   27.7250   31.8200   17.4430 O   0  0  0  0  0  0  0  0  0  0  0  0
   29.3100   30.2170   17.3150 O   0  0  0  0  0  0  0  0  0  0  0  0
   30.0990   30.8370   17.4290 H   0  0  0  0  0  0  0  0  0  0  0  0
   25.7590   27.1420   19.1050 O   0  0  0  0  0  0  0  0  0  0  0  0
   25.1700   27.5690   18.4450 H   0  0  0  0  0  0  0  0  0  0  0  0
   29.2230   27.6380   19.9540 N   0  0  0  0  0  0  0  0  0  0  0  0
   30.0440   27.2750   21.0570 C   0  0  0  0  0  0  0  0  0  0  0  0
   29.6590   27.7090   19.0110 H   0  0  0  0  0  0  0  0  0  0  0  0
   31.5020   26.9950   20.8990 C   0  0  0  0  0  0  0  0  0  0  0  0
   29.4640   27.2030   22.1860 O   0  0  0  0  0  0  0  0  0  0  0  0
   26.9780   28.5820   22.4520 O   0  0  0  0  0  0  0  0  0  0  0  0
   27.6430   27.9400   22.1350 H   0  0  0  0  0  0  0  0  0  0  0  0
   27.2150   32.0320   21.4150 O   0  0  0  0  0  0  0  0  0  0  0  0
   26.3970   32.4340   21.8290 H   0  0  0  0  0  0  0  0  0  0  0  0
   31.1910   32.6030   19.5640 O   0  0  0  0  0  0  0  0  0  0  0  0
   30.4640   33.5900   18.8100 C   0  0  0  0  0  0  0  0  0  0  0  0
   31.0160   33.5970   17.4310 C   0  0  0  0  0  0  0  0  0  0  0  0
   31.5040   34.7100   16.7650 C   0  0  0  0  0  0  0  0  0  0  0  0
   31.1610   32.5830   16.5570 N   0  0  0  0  0  0  0  0  0  0  0  0
   31.9240   34.3490   15.5310 N   0  0  0  0  0  0  0  0  0  0  0  0
   31.7000   33.0520   15.4400 N   0  0  0  0  0  0  0  0  0  0  0  0
   32.4980   35.2360   14.5390 C   0  0  0  0  0  0  0  0  0  0  0  0
   32.6590   36.6280   15.1120 C   0  0  0  0  0  0  0  0  0  0  0  0
   33.8480   34.7010   14.1080 C   0  0  0  0  0  0  0  0  0  0  0  0
   31.6030   35.3570   13.3500 C   0  0  0  0  0  0  0  0  0  0  0  0
   31.3100   36.5170   12.9640 O   0  0  0  0  0  0  0  0  0  0  0  0
   31.1060   34.2540   12.6840 O   0  0  0  0  0  0  0  0  0  0  0  0
   31.3300   34.1660   11.6960 H   0  0  0  0  0  0  0  0  0  0  0  0
   29.8670   25.5550   16.9770 C   0  0  0  0  0  0  0  0  0  0  0  0
   28.3450   25.7220   17.0260 C   0  0  0  0  0  0  0  0  0  0  0  0
   27.5990   24.4400   16.6880 C   0  0  0  0  0  0  0  0  0  0  0  0
   27.0170   23.7850   17.9100 C   0  0  0  0  0  0  0  0  0  0  0  0
   25.5810   23.3570   17.6240 C   0  0  0  0  0  0  0  0  0  0  0  0
   24.8400   24.4490   16.9490 N   0  0  0  0  0  0  0  0  0  0  0  0
  1  4  1  0  0  0  0
  1  5  1  0  0  0  0
  2  1  1  0  0  0  0
  3  2  2  0  0  0  0
  6  5  1  6  0  0  0
  7  6  1  0  0  0  0
  7 27  1  1  0  0  0
  8  7  1  1  0  0  0
  9 14  1  6  0  0  0
  9 11  1  0  0  0  0
 10  9  1  0  0  0  0
 10 12  1  0  0  0  0
 11  8  1  0  0  0  0
 12 20  1  1  0  0  0
 12 13  1  0  0  0  0
 13 22  1  6  0  0  0
 13  8  1  0  0  0  0
 15 14  1  0  0  0  0
 16  9  1  0  0  0  0
 17 16  2  0  0  0  0
 18 19  1  0  0  0  0
 18 16  1  0  0  0  0
 21 20  1  0  0  0  0
 22 23  1  0  0  0  0
 23 26  2  0  0  0  0
 24 22  1  0  0  0  0
 25 23  1  0  0  0  0
 28 27  1  0  0  0  0
 29 30  1  0  0  0  0
 29  6  1  0  0  0  0
 31  2  1  0  0  0  0
 32 31  1  0  0  0  0
 33 32  1  0  0  0  0
 34 33  2  0  0  0  0
 35 33  1  0  0  0  0
 36 34  1  0  0  0  0
 37 36  1  0  0  0  0
 37 35  2  0  0  0  0
 38 39  1  0  0  0  0
 38 36  1  0  0  0  0
 40 38  1  0  0  0  0
 41 38  1  0  0  0  0
 42 41  2  0  0  0  0
 43 41  1  0  0  0  0
 44 43  1  0  0  0  0
 45 46  1  0  0  0  0
 47 46  1  0  0  0  0
 47 48  1  0  0  0  0
 49 48  1  0  0  0  0
 50 49  1  0  0  0  0
M  END
>  <REMARK>
 VINA RESULT:    -5.122      4.359      8.729
 INTER + INTRA:         -14.893
 INTER:                  -8.090
 INTRA:                  -6.803
 UNBOUND:                -5.578
 SMILES CC(=O)N[C@@H]1[C@@H](O)C[C@](O)(C(=O)O)O[C@H]1C(O)[C@H](O)CNC(=O)OCc1cn(C(C)(C)C(=O)O)nn1
 SMILES IDX 21 1 22 2 23 3 20 5 18 6 16 7 15 8 9 9 8 10 14 11 6 12 5 13
 SMILES IDX 10 14 11 16 12 17 13 18 7 20 4 22 2 23 1 25 3 26 17 27 19 29
 SMILES IDX 24 31 25 32 26 33 27 34 36 35 28 36 35 37 29 38 30 39 31 40
 SMILES IDX 32 41 33 42 34 43
 H PARENT 21 4 10 15 13 19 7 21 4 24 17 28 19 30 34 44
 Flexibility Score: inf
  4 active torsions:
  status: ('A' for Active; 'I' for Inactive)
    1  A    between atoms: CA   and  CB  
    2  A    between atoms: CB   and  CG  
    3  A    between atoms: CG   and  CD  
    4  A    between atoms: CD   and  CE  

>  <TORSDO>
F 17

>  <BEGIN_>
RES LYS A 131

$$$$
ligand_22_pose_1_2HRL.pdbqt
 OpenBabel07062320523D

  6  5  0  0  0  0  0  0  0  0999 V2000
   33.1930   34.6630    9.2900 C   0  0  0  0  0  0  0  0  0  0  0  0
   32.0600   35.3600   10.0340 C   0  0  0  0  0  0  0  0  0  0  0  0
   30.8020   35.5040    9.2170 C   0  0  0  0  0  0  0  0  0  0  0  0
   30.0550   34.1810    9.1450 C   0  0  0  0  0  0  0  0  0  0  0  0
   28.6200   34.4030    8.7070 C   0  0  0  0  0  0  0  0  0  0  0  0
   27.6680   33.7020    9.6120 N   0  0  0  0  0  0  0  0  0  0  0  0
  1  2  1  0  0  0  0
  3  2  1  0  0  0  0
  4  3  1  0  0  0  0
  5  4  1  0  0  0  0
  5  6  1  0  0  0  0
M  END
>  <EGIN_R>
ES LYS A 135

>  <REMARK>
  4 active torsions:
  status: ('A' for Active; 'I' for Inactive)
    5  A    between atoms: CA   and  CB  
    6  A    between atoms: CB   and  CG  
    7  A    between atoms: CG   and  CD  
    8  A    between atoms: CD   and  CE  

$$$$
