ligand_13_pose_13_2HRL.pdbqt
 OpenBabel07062320523D

 49 49  0  0  1  0  0  0  0  0999 V2000
   29.6390   32.1060   15.0080 N   0  0  0  0  0  0  0  0  0  0  0  0
   30.5610   33.1230   14.6700 C   0  0  0  0  0  0  0  0  0  0  0  0
   31.5700   33.3560   15.3430 O   0  0  0  0  0  0  0  0  0  0  0  0
   28.8200   32.0270   14.3190 H   0  0  0  0  0  0  0  0  0  0  0  0
   29.7140   31.2320   16.1320 C   0  0  0  0  0  0  0  0  0  0  0  0
   28.4930   31.1020   16.9760 C   0  0  2  0  0  0  0  0  0  0  0  0
   28.2760   29.7440   17.5400 C   0  0  1  0  0  0  0  0  0  0  0  0
   27.4980   29.6780   18.8260 C   0  0  2  0  0  0  0  0  0  0  0  0
   28.2690   27.9510   20.2010 C   0  0  2  0  0  0  0  0  0  0  0  0
   26.9730   27.7960   20.9660 C   0  0  0  0  0  0  0  0  0  0  0  0
   28.3970   29.2430   19.7970 O   0  0  0  0  0  0  0  0  0  0  0  0
   25.8610   28.3910   20.1830 C   0  0  1  0  0  0  0  0  0  0  0  0
   26.2750   28.8060   18.7610 C   0  0  1  0  0  0  0  0  0  0  0  0
   28.2630   26.9920   19.2050 O   0  0  0  0  0  0  0  0  0  0  0  0
   29.1450   27.0080   18.7670 H   0  0  0  0  0  0  0  0  0  0  0  0
   29.3590   27.6510   21.1580 C   0  0  0  0  0  0  0  0  0  0  0  0
   29.5290   28.4170   22.1300 O   0  0  0  0  0  0  0  0  0  0  0  0
   30.1770   26.5610   21.0030 O   0  0  0  0  0  0  0  0  0  0  0  0
   31.1130   26.5210   21.4070 H   0  0  0  0  0  0  0  0  0  0  0  0
   24.7390   27.5720   20.0930 O   0  0  0  0  0  0  0  0  0  0  0  0
   23.8950   28.0360   20.2650 H   0  0  0  0  0  0  0  0  0  0  0  0
   25.1260   29.5330   18.2640 N   0  0  0  0  0  0  0  0  0  0  0  0
   24.1630   29.0240   17.3740 C   0  0  0  0  0  0  0  0  0  0  0  0
   25.0060   30.5150   18.5970 H   0  0  0  0  0  0  0  0  0  0  0  0
   22.9920   29.7870   16.8770 C   0  0  0  0  0  0  0  0  0  0  0  0
   24.3210   27.8280   16.9770 O   0  0  0  0  0  0  0  0  0  0  0  0
   27.8090   28.8710   16.5880 O   0  0  0  0  0  0  0  0  0  0  0  0
   27.4390   28.0270   16.9500 H   0  0  0  0  0  0  0  0  0  0  0  0
   27.3730   31.3690   16.1610 O   0  0  0  0  0  0  0  0  0  0  0  0
   27.1860   32.3530   16.1420 H   0  0  0  0  0  0  0  0  0  0  0  0
   30.3590   33.9270   13.5250 O   0  0  0  0  0  0  0  0  0  0  0  0
   29.6360   35.1410   13.6070 C   0  0  0  0  0  0  0  0  0  0  0  0
   28.2470   34.8420   13.1680 C   0  0  0  0  0  0  0  0  0  0  0  0
   27.1690   34.4890   13.9460 C   0  0  0  0  0  0  0  0  0  0  0  0
   27.7630   34.8590   11.8950 N   0  0  0  0  0  0  0  0  0  0  0  0
   26.1030   34.3130   13.1160 N   0  0  0  0  0  0  0  0  0  0  0  0
   26.4990   34.5460   11.8760 N   0  0  0  0  0  0  0  0  0  0  0  0
   24.7560   33.9380   13.4760 C   0  0  0  0  0  0  0  0  0  0  0  0
   24.7170   32.5750   14.0290 C   0  0  0  0  0  0  0  0  0  0  0  0
   24.7700   32.4160   15.2670 O   0  0  0  0  0  0  0  0  0  0  0  0
   24.6220   31.5020   13.1420 O   0  0  0  0  0  0  0  0  0  0  0  0
   23.3530   30.8410   13.1040 C   0  0  0  0  0  0  0  0  0  0  0  0
   23.5950   29.3990   12.7380 C   0  0  0  0  0  0  0  0  0  0  0  0
   29.8670   25.5550   16.9770 C   0  0  0  0  0  0  0  0  0  0  0  0
   28.3450   25.7220   17.0260 C   0  0  0  0  0  0  0  0  0  0  0  0
   27.6020   24.3980   16.9390 C   0  0  0  0  0  0  0  0  0  0  0  0
   26.1240   24.5610   17.1620 C   0  0  0  0  0  0  0  0  0  0  0  0
   25.8360   24.6000   18.6590 C   0  0  0  0  0  0  0  0  0  0  0  0
   25.7050   23.2260   19.1980 N   0  0  0  0  0  0  0  0  0  0  0  0
  1  5  1  0  0  0  0
  2  1  1  0  0  0  0
  2  3  2  0  0  0  0
  4  1  1  0  0  0  0
  6  5  1  6  0  0  0
  6  7  1  0  0  0  0
  7 27  1  6  0  0  0
  8  7  1  6  0  0  0
  8 11  1  0  0  0  0
  9 14  1  6  0  0  0
  9 10  1  0  0  0  0
  9 16  1  0  0  0  0
 11  9  1  0  0  0  0
 12 20  1  6  0  0  0
 12 10  1  0  0  0  0
 13 22  1  1  0  0  0
 13  8  1  0  0  0  0
 13 12  1  0  0  0  0
 15 14  1  0  0  0  0
 16 17  2  0  0  0  0
 18 16  1  0  0  0  0
 18 19  1  0  0  0  0
 20 21  1  0  0  0  0
 22 24  1  0  0  0  0
 23 22  1  0  0  0  0
 25 23  1  0  0  0  0
 26 23  2  0  0  0  0
 27 28  1  0  0  0  0
 29  6  1  0  0  0  0
 30 29  1  0  0  0  0
 31 32  1  0  0  0  0
 31  2  1  0  0  0  0
 33 32  1  0  0  0  0
 33 34  2  0  0  0  0
 35 33  1  0  0  0  0
 36 38  1  0  0  0  0
 36 34  1  0  0  0  0
 37 35  2  0  0  0  0
 37 36  1  0  0  0  0
 38 39  1  0  0  0  0
 39 40  2  0  0  0  0
 41 39  1  0  0  0  0
 42 41  1  0  0  0  0
 43 42  1  0  0  0  0
 44 45  1  0  0  0  0
 46 45  1  0  0  0  0
 46 47  1  0  0  0  0
 47 48  1  0  0  0  0
 48 49  1  0  0  0  0
M  END
>  <REMARK>
 VINA RESULT:    -4.082      3.057      8.765
 INTER + INTRA:         -13.730
 INTER:                  -8.533
 INTRA:                  -5.197
 UNBOUND:                -5.949
 SMILES CCOC(=O)Cn1cc(COC(=O)NC[C@@H](O)C(O)[C@@H]2O[C@@](O)(C(=O)O)C[C@H](O)[C@H]2NC(C)=O)nn1
 SMILES IDX 14 1 12 2 13 3 15 5 16 6 18 7 20 8 22 9 27 10 21 11 28 12
 SMILES IDX 30 13 23 14 24 16 25 17 26 18 29 20 31 22 32 23 33 25 34 26
 SMILES IDX 19 27 17 29 11 31 10 32 9 33 8 34 35 35 7 36 36 37 6 38 4 39
 SMILES IDX 5 40 3 41 2 42 1 43
 H PARENT 14 4 23 15 26 19 29 21 31 24 19 28 17 30
 Flexibility Score: inf
  4 active torsions:
  status: ('A' for Active; 'I' for Inactive)
    1  A    between atoms: CA   and  CB  
    2  A    between atoms: CB   and  CG  
    3  A    between atoms: CG   and  CD  
    4  A    between atoms: CD   and  CE  

>  <TORSDO>
F 18

>  <BEGIN_>
RES LYS A 131

$$$$
ligand_13_pose_13_2HRL.pdbqt
 OpenBabel07062320523D

  6  5  0  0  0  0  0  0  0  0999 V2000
   33.1930   34.6630    9.2900 C   0  0  0  0  0  0  0  0  0  0  0  0
   32.0600   35.3600   10.0340 C   0  0  0  0  0  0  0  0  0  0  0  0
   30.7260   34.6760    9.8780 C   0  0  0  0  0  0  0  0  0  0  0  0
   30.3520   34.5570    8.4090 C   0  0  0  0  0  0  0  0  0  0  0  0
   29.0980   35.3550    8.1130 C   0  0  0  0  0  0  0  0  0  0  0  0
   27.8740   34.5430    8.3590 N   0  0  0  0  0  0  0  0  0  0  0  0
  1  2  1  0  0  0  0
  3  2  1  0  0  0  0
  4  3  1  0  0  0  0
  5  6  1  0  0  0  0
  5  4  1  0  0  0  0
M  END
>  <EGIN_R>
ES LYS A 135

>  <REMARK>
  4 active torsions:
  status: ('A' for Active; 'I' for Inactive)
    5  A    between atoms: CA   and  CB  
    6  A    between atoms: CB   and  CG  
    7  A    between atoms: CG   and  CD  
    8  A    between atoms: CD   and  CE  

$$$$
