ligand_3_pose_14_2HRL.pdbqt
 OpenBabel07062320523D

 49 50  0  0  1  0  0  0  0  0999 V2000
   24.0810   41.3090    6.8470 C   0  0  0  0  0  0  0  0  0  0  0  0
   23.5170   40.1940    7.7030 C   0  0  2  0  0  0  0  0  0  0  0  0
   24.2100   38.8760    7.4400 C   0  0  1  0  0  0  0  0  0  0  0  0
   24.7490   38.2470    8.6820 C   0  0  2  0  0  0  0  0  0  0  0  0
   26.9820   38.9290    8.9390 C   0  0  2  0  0  0  0  0  0  0  0  0
   27.5200   37.6720    8.3520 C   0  0  0  0  0  0  0  0  0  0  0  0
   25.6980   38.9430    9.3330 O   0  0  0  0  0  0  0  0  0  0  0  0
   26.4850   36.7480    7.7810 C   0  0  1  0  0  0  0  0  0  0  0  0
   25.1730   36.8200    8.4950 C   0  0  1  0  0  0  0  0  0  0  0  0
   27.1490   39.9300    7.9570 O   0  0  0  0  0  0  0  0  0  0  0  0
   28.1020   39.8880    7.6630 H   0  0  0  0  0  0  0  0  0  0  0  0
   27.8300   39.3560   10.0840 C   0  0  0  0  0  0  0  0  0  0  0  0
   28.7580   38.6500   10.5360 O   0  0  0  0  0  0  0  0  0  0  0  0
   27.6030   40.5740   10.6860 O   0  0  0  0  0  0  0  0  0  0  0  0
   28.1620   41.4030   10.5300 H   0  0  0  0  0  0  0  0  0  0  0  0
   26.3000   37.0140    6.4130 O   0  0  0  0  0  0  0  0  0  0  0  0
   25.7000   37.7680    6.2560 H   0  0  0  0  0  0  0  0  0  0  0  0
   25.3690   36.2490    9.8300 N   0  0  0  0  0  0  0  0  0  0  0  0
   24.3630   35.4690   10.4640 C   0  0  0  0  0  0  0  0  0  0  0  0
   26.2550   36.3990   10.3570 H   0  0  0  0  0  0  0  0  0  0  0  0
   24.5420   34.8810   11.8180 C   0  0  0  0  0  0  0  0  0  0  0  0
   23.2630   35.2450    9.8890 O   0  0  0  0  0  0  0  0  0  0  0  0
   23.2340   38.0590    6.8440 O   0  0  0  0  0  0  0  0  0  0  0  0
   23.7430   37.2610    6.5100 H   0  0  0  0  0  0  0  0  0  0  0  0
   22.1380   40.1240    7.6030 O   0  0  0  0  0  0  0  0  0  0  0  0
   21.7270   39.5720    8.2980 H   0  0  0  0  0  0  0  0  0  0  0  0
   24.8820   40.8480    5.7570 N   0  0  0  0  0  0  0  0  0  0  0  0
   25.1410   41.6140    4.5890 C   0  0  0  0  0  0  0  0  0  0  0  0
   25.3190   39.8960    5.7910 H   0  0  0  0  0  0  0  0  0  0  0  0
   24.6750   42.7510    4.4470 O   0  0  0  0  0  0  0  0  0  0  0  0
   25.9280   41.1150    3.5570 O   0  0  0  0  0  0  0  0  0  0  0  0
   27.2810   41.5270    3.4340 C   0  0  0  0  0  0  0  0  0  0  0  0
   28.0850   40.6790    4.3420 C   0  0  0  0  0  0  0  0  0  0  0  0
   29.3070   40.9810    4.9010 C   0  0  0  0  0  0  0  0  0  0  0  0
   27.7430   39.4480    4.7740 N   0  0  0  0  0  0  0  0  0  0  0  0
   29.6490   39.9190    5.6480 N   0  0  0  0  0  0  0  0  0  0  0  0
   28.7020   39.0070    5.5630 N   0  0  0  0  0  0  0  0  0  0  0  0
   30.8490   39.8110    6.4050 C   0  0  0  0  0  0  0  0  0  0  0  0
   30.7760   39.4590    7.7410 C   0  0  0  0  0  0  0  0  0  0  0  0
   32.0770   40.0550    5.8190 C   0  0  0  0  0  0  0  0  0  0  0  0
   31.9620   39.3630    8.4480 C   0  0  0  0  0  0  0  0  0  0  0  0
   33.2430   39.9560    6.5350 C   0  0  0  0  0  0  0  0  0  0  0  0
   33.1780   39.6050    7.8660 C   0  0  0  0  0  0  0  0  0  0  0  0
   29.8670   25.5550   16.9770 C   0  0  0  0  0  0  0  0  0  0  0  0
   28.3450   25.7220   17.0260 C   0  0  0  0  0  0  0  0  0  0  0  0
   27.6010   24.4010   16.9000 C   0  0  0  0  0  0  0  0  0  0  0  0
   26.1990   24.4870   17.4360 C   0  0  0  0  0  0  0  0  0  0  0  0
   26.2130   25.2000   18.7850 C   0  0  0  0  0  0  0  0  0  0  0  0
   25.3540   24.4850   19.7580 N   0  0  0  0  0  0  0  0  0  0  0  0
  2  1  1  6  0  0  0
  3 23  1  1  0  0  0
  3  2  1  0  0  0  0
  4  3  1  6  0  0  0
  4  7  1  0  0  0  0
  5 10  1  6  0  0  0
  5  7  1  0  0  0  0
  5 12  1  0  0  0  0
  6  5  1  0  0  0  0
  8 16  1  6  0  0  0
  8  6  1  0  0  0  0
  8  9  1  0  0  0  0
  9  4  1  0  0  0  0
  9 18  1  1  0  0  0
 11 10  1  0  0  0  0
 12 13  2  0  0  0  0
 12 14  1  0  0  0  0
 15 14  1  0  0  0  0
 17 16  1  0  0  0  0
 18 20  1  0  0  0  0
 18 19  1  0  0  0  0
 19 21  1  0  0  0  0
 22 19  2  0  0  0  0
 24 23  1  0  0  0  0
 25  2  1  0  0  0  0
 25 26  1  0  0  0  0
 27 29  1  0  0  0  0
 27  1  1  0  0  0  0
 28 27  1  0  0  0  0
 30 28  2  0  0  0  0
 31 28  1  0  0  0  0
 32 31  1  0  0  0  0
 32 33  1  0  0  0  0
 33 35  1  0  0  0  0
 33 34  2  0  0  0  0
 34 36  1  0  0  0  0
 35 37  2  0  0  0  0
 36 38  1  0  0  0  0
 37 36  1  0  0  0  0
 38 39  1  0  0  0  0
 39 41  2  0  0  0  0
 40 38  2  0  0  0  0
 40 42  1  0  0  0  0
 42 43  2  0  0  0  0
 43 41  1  0  0  0  0
 44 45  1  0  0  0  0
 46 45  1  0  0  0  0
 46 47  1  0  0  0  0
 47 48  1  0  0  0  0
 48 49  1  0  0  0  0
M  END
>  <REMARK>
 VINA RESULT:    -5.316      4.490      9.053
 INTER + INTRA:         -13.687
 INTER:                  -7.587
 INTRA:                  -6.099
 UNBOUND:                -4.485
 SMILES CC(=O)N[C@@H]1[C@@H](O)C[C@](O)(C(=O)O)O[C@H]1C(O)[C@H](O)CNC(=O)OCc1cn(-c2ccccc2)nn1
 SMILES IDX 20 1 18 2 16 3 15 4 9 5 8 6 14 7 6 8 5 9 10 10 11 12 12 13
 SMILES IDX 13 14 7 16 4 18 2 19 1 21 3 22 17 23 19 25 21 27 22 28 23 30
 SMILES IDX 24 31 25 32 26 33 27 34 36 35 28 36 35 37 29 38 30 39 34 40
 SMILES IDX 31 41 33 42 32 43
 H PARENT 10 11 13 15 7 17 4 20 17 24 19 26 21 29
 Flexibility Score: inf
  4 active torsions:
  status: ('A' for Active; 'I' for Inactive)
    1  A    between atoms: CA   and  CB  
    2  A    between atoms: CB   and  CG  
    3  A    between atoms: CG   and  CD  
    4  A    between atoms: CD   and  CE  

>  <TORSDO>
F 15

>  <BEGIN_>
RES LYS A 131

$$$$
ligand_3_pose_14_2HRL.pdbqt
 OpenBabel07062320523D

  6  5  0  0  0  0  0  0  0  0999 V2000
   33.1930   34.6630    9.2900 C   0  0  0  0  0  0  0  0  0  0  0  0
   32.0600   35.3600   10.0340 C   0  0  0  0  0  0  0  0  0  0  0  0
   30.8900   35.7170    9.1530 C   0  0  0  0  0  0  0  0  0  0  0  0
   30.0720   34.4790    8.8200 C   0  0  0  0  0  0  0  0  0  0  0  0
   29.1190   34.1490    9.9530 C   0  0  0  0  0  0  0  0  0  0  0  0
   27.7840   33.7460    9.4310 N   0  0  0  0  0  0  0  0  0  0  0  0
  1  2  1  0  0  0  0
  3  2  1  0  0  0  0
  4  3  1  0  0  0  0
  4  5  1  0  0  0  0
  6  5  1  0  0  0  0
M  END
>  <EGIN_R>
ES LYS A 135

>  <REMARK>
  4 active torsions:
  status: ('A' for Active; 'I' for Inactive)
    5  A    between atoms: CA   and  CB  
    6  A    between atoms: CB   and  CG  
    7  A    between atoms: CG   and  CD  
    8  A    between atoms: CD   and  CE  

$$$$
