ligand_53_pose_16_2HRL.pdbqt
 OpenBabel07062320523D

 48 48  0  0  1  0  0  0  0  0999 V2000
   25.3230   36.0110   17.8750 N   0  0  0  0  0  0  0  0  0  0  0  0
   25.1810   37.2040   17.1410 C   0  0  0  0  0  0  0  0  0  0  0  0
   26.0460   38.0790   17.1370 O   0  0  0  0  0  0  0  0  0  0  0  0
   24.5070   35.3320   17.7870 H   0  0  0  0  0  0  0  0  0  0  0  0
   26.4350   35.6390   18.7090 C   0  0  0  0  0  0  0  0  0  0  0  0
   27.2140   34.4430   18.2610 C   0  0  2  0  0  0  0  0  0  0  0  0
   28.3430   34.7630   17.3550 C   0  0  1  0  0  0  0  0  0  0  0  0
   28.9810   33.5820   16.6760 C   0  0  2  0  0  0  0  0  0  0  0  0
   29.4150   31.2970   17.0330 C   0  0  2  0  0  0  0  0  0  0  0  0
   30.7130   31.3690   16.2990 C   0  0  0  0  0  0  0  0  0  0  0  0
   28.8810   32.4490   17.4960 O   0  0  0  0  0  0  0  0  0  0  0  0
   30.7620   32.5740   15.4130 C   0  0  1  0  0  0  0  0  0  0  0  0
   30.4350   33.7670   16.3320 C   0  0  1  0  0  0  0  0  0  0  0  0
   29.6160   30.3730   18.1010 O   0  0  0  0  0  0  0  0  0  0  0  0
   30.5500   30.5320   18.4060 H   0  0  0  0  0  0  0  0  0  0  0  0
   28.4230   30.6110   16.1510 C   0  0  0  0  0  0  0  0  0  0  0  0
   27.2160   30.9160   16.0710 O   0  0  0  0  0  0  0  0  0  0  0  0
   28.8600   29.5660   15.3640 O   0  0  0  0  0  0  0  0  0  0  0  0
   28.2360   29.0170   14.7770 H   0  0  0  0  0  0  0  0  0  0  0  0
   32.0070   32.7530   14.8180 O   0  0  0  0  0  0  0  0  0  0  0  0
   31.8410   32.9880   13.8680 H   0  0  0  0  0  0  0  0  0  0  0  0
   30.7940   34.9740   15.6620 N   0  0  0  0  0  0  0  0  0  0  0  0
   32.0250   35.6530   15.9130 C   0  0  0  0  0  0  0  0  0  0  0  0
   30.1590   35.3850   14.9540 H   0  0  0  0  0  0  0  0  0  0  0  0
   32.4320   36.9070   15.2400 C   0  0  0  0  0  0  0  0  0  0  0  0
   32.8060   35.1510   16.7560 O   0  0  0  0  0  0  0  0  0  0  0  0
   28.0300   35.7980   16.4890 O   0  0  0  0  0  0  0  0  0  0  0  0
   28.1440   36.6870   16.9130 H   0  0  0  0  0  0  0  0  0  0  0  0
   26.3230   33.5330   17.6710 O   0  0  0  0  0  0  0  0  0  0  0  0
   25.3840   33.7880   17.8210 H   0  0  0  0  0  0  0  0  0  0  0  0
   24.0410   37.4420   16.3780 O   0  0  0  0  0  0  0  0  0  0  0  0
   23.7160   36.7820   15.1950 C   0  0  0  0  0  0  0  0  0  0  0  0
   24.8050   35.9440   14.6360 C   0  0  0  0  0  0  0  0  0  0  0  0
   25.5920   36.1470   13.5460 C   0  0  0  0  0  0  0  0  0  0  0  0
   25.2240   34.7550   15.1610 N   0  0  0  0  0  0  0  0  0  0  0  0
   26.4450   35.1130   13.4310 N   0  0  0  0  0  0  0  0  0  0  0  0
   26.2110   34.2810   14.4120 N   0  0  0  0  0  0  0  0  0  0  0  0
   27.4440   34.9620   12.3930 C   0  0  0  0  0  0  0  0  0  0  0  0
   28.7860   35.2190   12.9520 C   0  0  0  0  0  0  0  0  0  0  0  0
   29.7520   34.4860   12.5970 O   0  0  0  0  0  0  0  0  0  0  0  0
   28.9890   36.2460   13.8490 O   0  0  0  0  0  0  0  0  0  0  0  0
   29.9080   36.6980   13.8310 H   0  0  0  0  0  0  0  0  0  0  0  0
   29.8670   25.5550   16.9770 C   0  0  0  0  0  0  0  0  0  0  0  0
   28.3450   25.7220   17.0260 C   0  0  0  0  0  0  0  0  0  0  0  0
   27.6010   24.4060   16.8630 C   0  0  0  0  0  0  0  0  0  0  0  0
   26.5680   24.2020   17.9370 C   0  0  0  0  0  0  0  0  0  0  0  0
   25.2260   23.8630   17.2950 C   0  0  0  0  0  0  0  0  0  0  0  0
   24.6420   22.6550   17.9230 N   0  0  0  0  0  0  0  0  0  0  0  0
  1  5  1  0  0  0  0
  2  1  1  0  0  0  0
  3  2  2  0  0  0  0
  4  1  1  0  0  0  0
  6  5  1  6  0  0  0
  7 27  1  6  0  0  0
  7  6  1  0  0  0  0
  8  7  1  1  0  0  0
  8 11  1  0  0  0  0
  9 16  1  6  0  0  0
  9 11  1  0  0  0  0
  9 14  1  0  0  0  0
 10  9  1  0  0  0  0
 12 20  1  1  0  0  0
 12 10  1  0  0  0  0
 12 13  1  0  0  0  0
 13 22  1  6  0  0  0
 13  8  1  0  0  0  0
 14 15  1  0  0  0  0
 17 16  2  0  0  0  0
 18 16  1  0  0  0  0
 19 18  1  0  0  0  0
 21 20  1  0  0  0  0
 22 23  1  0  0  0  0
 23 26  2  0  0  0  0
 24 22  1  0  0  0  0
 25 23  1  0  0  0  0
 27 28  1  0  0  0  0
 29 30  1  0  0  0  0
 29  6  1  0  0  0  0
 31  2  1  0  0  0  0
 32 31  1  0  0  0  0
 33 35  1  0  0  0  0
 33 32  1  0  0  0  0
 34 33  2  0  0  0  0
 36 34  1  0  0  0  0
 36 37  1  0  0  0  0
 37 35  2  0  0  0  0
 38 39  1  0  0  0  0
 38 36  1  0  0  0  0
 39 41  1  0  0  0  0
 40 39  2  0  0  0  0
 42 41  1  0  0  0  0
 43 44  1  0  0  0  0
 45 44  1  0  0  0  0
 45 46  1  0  0  0  0
 47 48  1  0  0  0  0
 47 46  1  0  0  0  0
M  END
>  <REMARK>
 VINA RESULT:    -3.867      2.219      4.529
 INTER + INTRA:         -13.393
 INTER:                  -5.950
 INTRA:                  -7.443
 UNBOUND:                -6.362
 SMILES CC(=O)N[C@@H]1[C@@H](O)C[C@](O)(C(=O)O)O[C@H]1C(O)[C@H](O)CNC(=O)OCc1cn(CC(=O)O)nn1
 SMILES IDX 21 1 22 2 23 3 20 5 18 6 16 7 15 8 9 9 8 10 14 11 6 12 5 13
 SMILES IDX 10 14 11 16 12 17 13 18 7 20 4 22 2 23 1 25 3 26 17 27 19 29
 SMILES IDX 24 31 25 32 26 33 27 34 34 35 28 36 33 37 29 38 30 39 31 40
 SMILES IDX 32 41
 H PARENT 21 4 10 15 13 19 7 21 4 24 17 28 19 30 32 42
 Flexibility Score: inf
  4 active torsions:
  status: ('A' for Active; 'I' for Inactive)
    1  A    between atoms: CA   and  CB  
    2  A    between atoms: CB   and  CG  
    3  A    between atoms: CG   and  CD  
    4  A    between atoms: CD   and  CE  

>  <TORSDO>
F 17

>  <BEGIN_>
RES LYS A 131

$$$$
ligand_53_pose_16_2HRL.pdbqt
 OpenBabel07062320523D

  6  5  0  0  0  0  0  0  0  0999 V2000
   33.1930   34.6630    9.2900 C   0  0  0  0  0  0  0  0  0  0  0  0
   32.0600   35.3600   10.0340 C   0  0  0  0  0  0  0  0  0  0  0  0
   30.7870   35.4620    9.2340 C   0  0  0  0  0  0  0  0  0  0  0  0
   30.1450   34.0930    9.0710 C   0  0  0  0  0  0  0  0  0  0  0  0
   28.6470   34.2270    8.8720 C   0  0  0  0  0  0  0  0  0  0  0  0
   28.3370   35.1140    7.7160 N   0  0  0  0  0  0  0  0  0  0  0  0
  1  2  1  0  0  0  0
  3  2  1  0  0  0  0
  4  3  1  0  0  0  0
  5  4  1  0  0  0  0
  6  5  1  0  0  0  0
M  END
>  <EGIN_R>
ES LYS A 135

>  <REMARK>
  4 active torsions:
  status: ('A' for Active; 'I' for Inactive)
    5  A    between atoms: CA   and  CB  
    6  A    between atoms: CB   and  CG  
    7  A    between atoms: CG   and  CD  
    8  A    between atoms: CD   and  CE  

$$$$
