ligand_67_pose_9_2HRL.pdbqt
 OpenBabel07062320523D

 50 51  0  0  1  0  0  0  0  0999 V2000
   31.5850   30.8230   21.0920 N   0  0  0  0  0  0  0  0  0  0  0  0
   32.3740   31.9280   21.4940 C   0  0  0  0  0  0  0  0  0  0  0  0
   33.5990   31.7380   21.8030 O   0  0  0  0  0  0  0  0  0  0  0  0
   30.5930   30.9670   20.8400 H   0  0  0  0  0  0  0  0  0  0  0  0
   32.1670   29.5240   21.0390 C   0  0  0  0  0  0  0  0  0  0  0  0
   31.3560   28.5280   20.2560 C   0  0  2  0  0  0  0  0  0  0  0  0
   30.2180   27.9510   21.0420 C   0  0  1  0  0  0  0  0  0  0  0  0
   28.8960   28.4750   20.5240 C   0  0  2  0  0  0  0  0  0  0  0  0
   28.0560   30.1840   19.1890 C   0  0  2  0  0  0  0  0  0  0  0  0
   26.9340   30.3500   20.1730 C   0  0  0  0  0  0  0  0  0  0  0  0
   29.1510   29.5170   19.6720 O   0  0  0  0  0  0  0  0  0  0  0  0
   27.5320   30.2800   21.5630 C   0  0  1  0  0  0  0  0  0  0  0  0
   28.0680   28.8660   21.7390 C   0  0  1  0  0  0  0  0  0  0  0  0
   28.4950   31.4830   18.8420 O   0  0  0  0  0  0  0  0  0  0  0  0
   29.3580   31.4650   18.3860 H   0  0  0  0  0  0  0  0  0  0  0  0
   27.5380   29.5960   17.9130 C   0  0  0  0  0  0  0  0  0  0  0  0
   26.3950   29.1030   17.7830 O   0  0  0  0  0  0  0  0  0  0  0  0
   28.3930   29.6070   16.8200 O   0  0  0  0  0  0  0  0  0  0  0  0
   28.5200   30.4060   16.2070 H   0  0  0  0  0  0  0  0  0  0  0  0
   28.6130   31.1720   21.6220 O   0  0  0  0  0  0  0  0  0  0  0  0
   29.4550   30.7200   21.8660 H   0  0  0  0  0  0  0  0  0  0  0  0
   26.9340   27.9720   21.9210 N   0  0  0  0  0  0  0  0  0  0  0  0
   27.0530   26.8790   22.8160 C   0  0  0  0  0  0  0  0  0  0  0  0
   26.0280   28.1290   21.3930 H   0  0  0  0  0  0  0  0  0  0  0  0
   25.9550   25.9120   23.0690 C   0  0  0  0  0  0  0  0  0  0  0  0
   28.1520   26.7310   23.4250 O   0  0  0  0  0  0  0  0  0  0  0  0
   30.2700   26.5570   21.0580 O   0  0  0  0  0  0  0  0  0  0  0  0
   30.3130   26.1730   21.9590 H   0  0  0  0  0  0  0  0  0  0  0  0
   32.1890   27.5070   19.8230 O   0  0  0  0  0  0  0  0  0  0  0  0
   31.8580   26.6130   20.0270 H   0  0  0  0  0  0  0  0  0  0  0  0
   31.9200   33.2130   21.5820 O   0  0  0  0  0  0  0  0  0  0  0  0
   30.9430   33.8110   20.7510 C   0  0  0  0  0  0  0  0  0  0  0  0
   31.4680   34.1340   19.4030 C   0  0  0  0  0  0  0  0  0  0  0  0
   31.1910   33.4660   18.2330 C   0  0  0  0  0  0  0  0  0  0  0  0
   32.3070   35.1280   19.0720 N   0  0  0  0  0  0  0  0  0  0  0  0
   31.8670   34.0700   17.2310 N   0  0  0  0  0  0  0  0  0  0  0  0
   32.5340   35.0740   17.7690 N   0  0  0  0  0  0  0  0  0  0  0  0
   31.8880   33.7290   15.8150 C   0  0  0  0  0  0  0  0  0  0  0  0
   31.2010   32.4020   15.5770 C   0  0  0  0  0  0  0  0  0  0  0  0
   29.8190   32.5930   15.0500 C   0  0  0  0  0  0  0  0  0  0  0  0
   29.5550   33.8790   14.5990 O   0  0  0  0  0  0  0  0  0  0  0  0
   28.8150   32.2730   15.9520 O   0  0  0  0  0  0  0  0  0  0  0  0
   28.1710   34.0310   14.6380 C   0  0  0  0  0  0  0  0  0  0  0  0
   27.6970   32.9980   15.6170 C   0  0  0  0  0  0  0  0  0  0  0  0
   29.8670   25.5550   16.9770 C   0  0  0  0  0  0  0  0  0  0  0  0
   28.3450   25.7220   17.0260 C   0  0  0  0  0  0  0  0  0  0  0  0
   27.5990   24.4180   16.7840 C   0  0  0  0  0  0  0  0  0  0  0  0
   26.3350   24.3310   17.5920 C   0  0  0  0  0  0  0  0  0  0  0  0
   25.9670   25.7160   18.1150 C   0  0  0  0  0  0  0  0  0  0  0  0
   25.4350   25.6260   19.4950 N   0  0  0  0  0  0  0  0  0  0  0  0
  1  2  1  0  0  0  0
  2 31  1  0  0  0  0
  2  3  2  0  0  0  0
  4  1  1  0  0  0  0
  5  1  1  0  0  0  0
  6  5  1  1  0  0  0
  6  7  1  0  0  0  0
  7 27  1  6  0  0  0
  8  7  1  1  0  0  0
  8 13  1  0  0  0  0
  9 16  1  6  0  0  0
  9 11  1  0  0  0  0
  9 10  1  0  0  0  0
 10 12  1  0  0  0  0
 11  8  1  0  0  0  0
 12 20  1  6  0  0  0
 12 13  1  0  0  0  0
 13 22  1  6  0  0  0
 14  9  1  0  0  0  0
 15 14  1  0  0  0  0
 17 16  2  0  0  0  0
 18 16  1  0  0  0  0
 19 18  1  0  0  0  0
 20 21  1  0  0  0  0
 22 23  1  0  0  0  0
 23 25  1  0  0  0  0
 23 26  2  0  0  0  0
 24 22  1  0  0  0  0
 27 28  1  0  0  0  0
 29 30  1  0  0  0  0
 29  6  1  0  0  0  0
 32 31  1  0  0  0  0
 33 32  1  0  0  0  0
 34 33  2  0  0  0  0
 35 33  1  0  0  0  0
 36 37  1  0  0  0  0
 36 34  1  0  0  0  0
 37 35  2  0  0  0  0
 38 36  1  0  0  0  0
 39 38  1  0  0  0  0
 40 39  1  0  0  0  0
 40 42  1  0  0  0  0
 41 43  1  0  0  0  0
 41 40  1  0  0  0  0
 43 44  1  0  0  0  0
 44 42  1  0  0  0  0
 45 46  1  0  0  0  0
 47 46  1  0  0  0  0
 47 48  1  0  0  0  0
 48 49  1  0  0  0  0
 49 50  1  0  0  0  0
M  END
>  <REMARK>
 VINA RESULT:    -4.319      2.968      7.340
 INTER + INTRA:         -14.273
 INTER:                  -7.884
 INTRA:                  -6.390
 UNBOUND:                -6.292
 SMILES CC(=O)N[C@@H]1[C@@H](O)C[C@](O)(C(=O)O)O[C@H]1C(O)[C@H](O)CNC(=O)OCc1cn(CCC2OCCO2)nn1
 SMILES IDX 21 1 22 2 23 3 20 5 18 6 16 7 15 8 9 9 8 10 14 11 6 12 5 13
 SMILES IDX 10 14 11 16 12 17 13 18 7 20 4 22 2 23 1 25 3 26 17 27 19 29
 SMILES IDX 24 31 25 32 26 33 27 34 37 35 28 36 36 37 29 38 30 39 31 40
 SMILES IDX 32 41 35 42 33 43 34 44
 H PARENT 21 4 10 15 13 19 7 21 4 24 17 28 19 30
 Flexibility Score: inf
  4 active torsions:
  status: ('A' for Active; 'I' for Inactive)
    1  A    between atoms: CA   and  CB  
    2  A    between atoms: CB   and  CG  
    3  A    between atoms: CG   and  CD  
    4  A    between atoms: CD   and  CE  

>  <TORSDO>
F 17

>  <BEGIN_>
RES LYS A 131

$$$$
ligand_67_pose_9_2HRL.pdbqt
 OpenBabel07062320523D

  6  5  0  0  0  0  0  0  0  0999 V2000
   33.1930   34.6630    9.2900 C   0  0  0  0  0  0  0  0  0  0  0  0
   32.0600   35.3600   10.0340 C   0  0  0  0  0  0  0  0  0  0  0  0
   30.8770   35.6880    9.1600 C   0  0  0  0  0  0  0  0  0  0  0  0
   30.4120   34.4550    8.4010 C   0  0  0  0  0  0  0  0  0  0  0  0
   28.8970   34.4020    8.3480 C   0  0  0  0  0  0  0  0  0  0  0  0
   28.3340   33.8890    9.6280 N   0  0  0  0  0  0  0  0  0  0  0  0
  1  2  1  0  0  0  0
  3  2  1  0  0  0  0
  4  3  1  0  0  0  0
  5  4  1  0  0  0  0
  5  6  1  0  0  0  0
M  END
>  <EGIN_R>
ES LYS A 135

>  <REMARK>
  4 active torsions:
  status: ('A' for Active; 'I' for Inactive)
    5  A    between atoms: CA   and  CB  
    6  A    between atoms: CB   and  CG  
    7  A    between atoms: CG   and  CD  
    8  A    between atoms: CD   and  CE  

$$$$
