ligand_18_pose_13_2HRL.pdbqt
 OpenBabel07062320523D

 54 55  0  0  1  0  0  0  0  0999 V2000
   26.7460   37.4050   12.6060 N   0  0  0  0  0  0  0  0  0  0  0  0
   25.9850   36.7660   11.6060 C   0  0  0  0  0  0  0  0  0  0  0  0
   25.5830   35.5960   11.8160 O   0  0  0  0  0  0  0  0  0  0  0  0
   27.0710   38.3770   12.4090 H   0  0  0  0  0  0  0  0  0  0  0  0
   27.1070   36.8170   13.8810 C   0  0  0  0  0  0  0  0  0  0  0  0
   28.3990   36.0560   13.7750 C   0  0  2  0  0  0  0  0  0  0  0  0
   28.3010   34.6080   14.1180 C   0  0  1  0  0  0  0  0  0  0  0  0
   29.2380   34.0640   15.1280 C   0  0  2  0  0  0  0  0  0  0  0  0
   31.5370   33.6600   15.2910 C   0  0  2  0  0  0  0  0  0  0  0  0
   31.1410   33.4630   16.7430 C   0  0  0  0  0  0  0  0  0  0  0  0
   30.5250   34.1070   14.4950 O   0  0  0  0  0  0  0  0  0  0  0  0
   30.0240   32.4790   16.7840 C   0  0  1  0  0  0  0  0  0  0  0  0
   29.0850   32.6670   15.5750 C   0  0  1  0  0  0  0  0  0  0  0  0
   32.0420   32.4140   14.8720 O   0  0  0  0  0  0  0  0  0  0  0  0
   31.3980   31.7050   15.1490 H   0  0  0  0  0  0  0  0  0  0  0  0
   32.6490   34.6410   15.1880 C   0  0  0  0  0  0  0  0  0  0  0  0
   33.1190   34.9070   14.0620 O   0  0  0  0  0  0  0  0  0  0  0  0
   33.1830   35.2720   16.3070 O   0  0  0  0  0  0  0  0  0  0  0  0
   33.0330   36.2800   16.3670 H   0  0  0  0  0  0  0  0  0  0  0  0
   30.4350   31.1680   16.8860 O   0  0  0  0  0  0  0  0  0  0  0  0
   30.8520   30.9870   17.7650 H   0  0  0  0  0  0  0  0  0  0  0  0
   27.8160   32.2180   16.0090 N   0  0  0  0  0  0  0  0  0  0  0  0
   27.4690   30.8540   15.9040 C   0  0  0  0  0  0  0  0  0  0  0  0
   27.1180   32.8610   16.4080 H   0  0  0  0  0  0  0  0  0  0  0  0
   26.1400   30.3310   16.3470 C   0  0  0  0  0  0  0  0  0  0  0  0
   28.2680   29.9810   15.4230 O   0  0  0  0  0  0  0  0  0  0  0  0
   27.0150   34.0880   14.1310 O   0  0  0  0  0  0  0  0  0  0  0  0
   26.7630   33.6540   14.9560 H   0  0  0  0  0  0  0  0  0  0  0  0
   29.4860   36.6890   14.3640 O   0  0  0  0  0  0  0  0  0  0  0  0
   30.0570   36.0780   14.8840 H   0  0  0  0  0  0  0  0  0  0  0  0
   25.6640   37.3880   10.3910 O   0  0  0  0  0  0  0  0  0  0  0  0
   25.0330   36.6610    9.3530 C   0  0  0  0  0  0  0  0  0  0  0  0
   26.0140   36.4960    8.2440 C   0  0  0  0  0  0  0  0  0  0  0  0
   26.4600   37.4490    7.3520 C   0  0  0  0  0  0  0  0  0  0  0  0
   26.6620   35.3740    7.8930 N   0  0  0  0  0  0  0  0  0  0  0  0
   27.3410   36.8860    6.5110 N   0  0  0  0  0  0  0  0  0  0  0  0
   27.4450   35.6220    6.8620 N   0  0  0  0  0  0  0  0  0  0  0  0
   28.0330   37.5960    5.4240 C   0  0  0  0  0  0  0  0  0  0  0  0
   28.8950   38.6160    6.0660 C   0  0  0  0  0  0  0  0  0  0  0  0
   28.6010   39.8470    5.9030 O   0  0  0  0  0  0  0  0  0  0  0  0
   30.0340   38.3390    6.8580 N   0  0  0  0  0  0  0  0  0  0  0  0
   30.2720   37.3400    6.9890 H   0  0  0  0  0  0  0  0  0  0  0  0
   30.8460   39.3670    7.4670 C   0  0  0  0  0  0  0  0  0  0  0  0
   30.7870   39.1300    8.9630 C   0  0  0  0  0  0  0  0  0  0  0  0
   31.7740   39.0090    9.8430 C   0  0  0  0  0  0  0  0  0  0  0  0
   29.3450   38.9520    9.9080 S   0  0  0  0  0  0  0  0  0  0  0  0
   31.5100   38.7970   11.1500 C   0  0  0  0  0  0  0  0  0  0  0  0
   30.1520   38.7170   11.4900 C   0  0  0  0  0  0  0  0  0  0  0  0
   29.8670   25.5550   16.9770 C   0  0  0  0  0  0  0  0  0  0  0  0
   28.3450   25.7220   17.0260 C   0  0  0  0  0  0  0  0  0  0  0  0
   27.5990   24.4770   16.5710 C   0  0  0  0  0  0  0  0  0  0  0  0
   27.0100   23.7150   17.7260 C   0  0  0  0  0  0  0  0  0  0  0  0
   25.6760   24.3400   18.1200 C   0  0  0  0  0  0  0  0  0  0  0  0
   24.7510   24.3620   16.9620 N   0  0  0  0  0  0  0  0  0  0  0  0
  1  5  1  0  0  0  0
  2  3  2  0  0  0  0
  2  1  1  0  0  0  0
  4  1  1  0  0  0  0
  6  5  1  1  0  0  0
  6  7  1  0  0  0  0
  6 29  1  0  0  0  0
  7 27  1  1  0  0  0
  8  7  1  6  0  0  0
  8 13  1  0  0  0  0
  9 14  1  6  0  0  0
  9 10  1  0  0  0  0
 10 12  1  0  0  0  0
 11  8  1  0  0  0  0
 11  9  1  0  0  0  0
 12 20  1  6  0  0  0
 13 22  1  1  0  0  0
 13 12  1  0  0  0  0
 14 15  1  0  0  0  0
 16  9  1  0  0  0  0
 16 18  1  0  0  0  0
 17 16  2  0  0  0  0
 18 19  1  0  0  0  0
 20 21  1  0  0  0  0
 22 24  1  0  0  0  0
 23 22  1  0  0  0  0
 23 25  1  0  0  0  0
 26 23  2  0  0  0  0
 27 28  1  0  0  0  0
 29 30  1  0  0  0  0
 31  2  1  0  0  0  0
 32 31  1  0  0  0  0
 33 32  1  0  0  0  0
 34 33  2  0  0  0  0
 35 33  1  0  0  0  0
 36 37  1  0  0  0  0
 36 34  1  0  0  0  0
 37 35  2  0  0  0  0
 38 39  1  0  0  0  0
 38 36  1  0  0  0  0
 39 41  1  0  0  0  0
 40 39  2  0  0  0  0
 41 42  1  0  0  0  0
 41 43  1  0  0  0  0
 43 44  1  0  0  0  0
 44 45  2  0  0  0  0
 44 46  1  0  0  0  0
 45 47  1  0  0  0  0
 46 48  1  0  0  0  0
 47 48  2  0  0  0  0
 49 50  1  0  0  0  0
 51 50  1  0  0  0  0
 51 52  1  0  0  0  0
 52 53  1  0  0  0  0
 54 53  1  0  0  0  0
M  END
>  <REMARK>
 VINA RESULT:    -4.177      2.622      8.295
 INTER + INTRA:         -14.749
 INTER:                  -9.442
 INTRA:                  -5.307
 UNBOUND:                -6.788
 SMILES CC(=O)N[C@@H]1[C@@H](O)C[C@](O)(C(=O)O)O[C@H]1C(O)[C@H](O)CNC(=O)OCc1cn(CC(=O)NCc2cccs2)nn1
 SMILES IDX 21 1 22 2 23 3 20 5 18 6 16 7 15 8 9 9 8 10 14 11 6 12 5 13
 SMILES IDX 10 14 11 16 12 17 13 18 7 20 4 22 2 23 1 25 3 26 17 27 19 29
 SMILES IDX 24 31 25 32 26 33 27 34 40 35 28 36 39 37 29 38 30 39 31 40
 SMILES IDX 32 41 33 43 34 44 35 45 38 46 36 47 37 48
 H PARENT 21 4 10 15 13 19 7 21 4 24 17 28 19 30 32 42
 Flexibility Score: inf
  4 active torsions:
  status: ('A' for Active; 'I' for Inactive)
    1  A    between atoms: CA   and  CB  
    2  A    between atoms: CB   and  CG  
    3  A    between atoms: CG   and  CD  
    4  A    between atoms: CD   and  CE  

>  <TORSDO>
F 18

>  <BEGIN_>
RES LYS A 131

$$$$
ligand_18_pose_13_2HRL.pdbqt
 OpenBabel07062320523D

  6  5  0  0  0  0  0  0  0  0999 V2000
   33.1930   34.6630    9.2900 C   0  0  0  0  0  0  0  0  0  0  0  0
   32.0600   35.3600   10.0340 C   0  0  0  0  0  0  0  0  0  0  0  0
   30.7910   35.4730    9.2300 C   0  0  0  0  0  0  0  0  0  0  0  0
   30.3210   34.1000    8.7730 C   0  0  0  0  0  0  0  0  0  0  0  0
   29.0340   33.7160    9.4770 C   0  0  0  0  0  0  0  0  0  0  0  0
   28.6990   34.6900   10.5520 N   0  0  0  0  0  0  0  0  0  0  0  0
  1  2  1  0  0  0  0
  3  2  1  0  0  0  0
  4  3  1  0  0  0  0
  4  5  1  0  0  0  0
  5  6  1  0  0  0  0
M  END
>  <EGIN_R>
ES LYS A 135

>  <REMARK>
  4 active torsions:
  status: ('A' for Active; 'I' for Inactive)
    5  A    between atoms: CA   and  CB  
    6  A    between atoms: CB   and  CG  
    7  A    between atoms: CG   and  CD  
    8  A    between atoms: CD   and  CE  

$$$$
