ligand_6_pose_18_2HRL.pdbqt
 OpenBabel07062320523D

 52 53  0  0  1  0  0  0  0  0999 V2000
   30.8420   33.0490   17.4300 N   0  0  0  0  0  0  0  0  0  0  0  0
   31.6120   34.2050   17.2080 C   0  0  0  0  0  0  0  0  0  0  0  0
   31.7220   35.1230   18.0410 O   0  0  0  0  0  0  0  0  0  0  0  0
   30.8510   32.3150   16.6400 H   0  0  0  0  0  0  0  0  0  0  0  0
   30.0770   32.7950   18.5870 C   0  0  0  0  0  0  0  0  0  0  0  0
   30.0900   31.4600   19.2160 C   0  0  2  0  0  0  0  0  0  0  0  0
   31.1310   31.0290   20.1420 C   0  0  2  0  0  0  0  0  0  0  0  0
   31.0930   29.5200   20.4070 C   0  0  2  0  0  0  0  0  0  0  0  0
   29.6840   27.9670   21.4140 C   0  0  2  0  0  0  0  0  0  0  0  0
   30.7910   27.0140   21.0270 C   0  0  0  0  0  0  0  0  0  0  0  0
   29.7800   29.2020   20.8150 O   0  0  0  0  0  0  0  0  0  0  0  0
   32.1540   27.5510   21.3340 C   0  0  1  0  0  0  0  0  0  0  0  0
   32.0040   29.0760   21.4920 C   0  0  1  0  0  0  0  0  0  0  0  0
   29.6580   28.0310   22.7960 O   0  0  0  0  0  0  0  0  0  0  0  0
   30.5660   27.9100   23.1400 H   0  0  0  0  0  0  0  0  0  0  0  0
   28.4130   27.3500   20.9500 C   0  0  0  0  0  0  0  0  0  0  0  0
   27.3640   27.4440   21.6380 O   0  0  0  0  0  0  0  0  0  0  0  0
   28.3500   26.6580   19.7530 O   0  0  0  0  0  0  0  0  0  0  0  0
   29.0730   25.9930   19.4700 H   0  0  0  0  0  0  0  0  0  0  0  0
   32.7530   26.9910   22.4400 O   0  0  0  0  0  0  0  0  0  0  0  0
   32.4680   27.5030   23.2380 H   0  0  0  0  0  0  0  0  0  0  0  0
   33.3530   29.5970   21.4170 N   0  0  0  0  0  0  0  0  0  0  0  0
   34.0430   30.0080   22.6060 C   0  0  0  0  0  0  0  0  0  0  0  0
   33.8720   29.6960   20.5240 H   0  0  0  0  0  0  0  0  0  0  0  0
   35.4190   30.5480   22.6030 C   0  0  0  0  0  0  0  0  0  0  0  0
   33.4340   29.8950   23.6900 O   0  0  0  0  0  0  0  0  0  0  0  0
   31.1050   31.7410   21.3130 O   0  0  0  0  0  0  0  0  0  0  0  0
   30.2180   31.9250   21.6940 H   0  0  0  0  0  0  0  0  0  0  0  0
   29.8870   30.5430   18.1450 O   0  0  0  0  0  0  0  0  0  0  0  0
   28.9150   30.3950   18.0100 H   0  0  0  0  0  0  0  0  0  0  0  0
   32.2840   34.3080   15.9690 O   0  0  0  0  0  0  0  0  0  0  0  0
   31.6530   33.6900   14.8650 C   0  0  0  0  0  0  0  0  0  0  0  0
   30.7950   34.6880   14.1400 C   0  0  0  0  0  0  0  0  0  0  0  0
   29.7670   34.4270   13.2600 C   0  0  0  0  0  0  0  0  0  0  0  0
   30.8580   36.0400   14.2010 N   0  0  0  0  0  0  0  0  0  0  0  0
   29.2350   35.5900   12.8140 N   0  0  0  0  0  0  0  0  0  0  0  0
   29.9320   36.5320   13.4130 N   0  0  0  0  0  0  0  0  0  0  0  0
   28.1580   35.7420   11.8930 C   0  0  0  0  0  0  0  0  0  0  0  0
   27.9940   36.8830   11.1370 C   0  0  0  0  0  0  0  0  0  0  0  0
   27.2220   34.7390   11.7180 C   0  0  0  0  0  0  0  0  0  0  0  0
   26.9430   37.0090   10.2500 C   0  0  0  0  0  0  0  0  0  0  0  0
   26.1700   34.8630   10.8310 C   0  0  0  0  0  0  0  0  0  0  0  0
   26.0040   36.0030   10.0740 C   0  0  0  0  0  0  0  0  0  0  0  0
   24.9250   36.1230    9.1670 N   0  0  0  0  0  0  0  0  0  0  0  0
   23.9270   35.4010    9.3310 O   0  0  0  0  0  0  0  0  0  0  0  0
   24.9110   36.9930    8.1140 O   0  0  0  0  0  0  0  0  0  0  0  0
   29.8670   25.5550   16.9770 C   0  0  0  0  0  0  0  0  0  0  0  0
   28.3450   25.7220   17.0260 C   0  0  0  0  0  0  0  0  0  0  0  0
   27.6010   24.4010   16.9020 C   0  0  0  0  0  0  0  0  0  0  0  0
   26.1500   24.5310   17.2700 C   0  0  0  0  0  0  0  0  0  0  0  0
   25.6430   23.2030   17.8230 C   0  0  0  0  0  0  0  0  0  0  0  0
   24.3410   22.8490   17.2110 N   0  0  0  0  0  0  0  0  0  0  0  0
  1  5  1  0  0  0  0
  2  1  1  0  0  0  0
  2  3  2  0  0  0  0
  4  1  1  0  0  0  0
  6  5  1  6  0  0  0
  6  7  1  0  0  0  0
  7 27  1  1  0  0  0
  8  7  1  1  0  0  0
  8 11  1  0  0  0  0
  8 13  1  0  0  0  0
  9 16  1  6  0  0  0
  9 14  1  0  0  0  0
 10 12  1  0  0  0  0
 10  9  1  0  0  0  0
 11  9  1  0  0  0  0
 12 13  1  0  0  0  0
 12 20  1  1  0  0  0
 13 22  1  6  0  0  0
 14 15  1  0  0  0  0
 16 17  2  0  0  0  0
 18 16  1  0  0  0  0
 19 18  1  0  0  0  0
 20 21  1  0  0  0  0
 22 23  1  0  0  0  0
 23 26  2  0  0  0  0
 24 22  1  0  0  0  0
 25 23  1  0  0  0  0
 27 28  1  0  0  0  0
 29  6  1  0  0  0  0
 30 29  1  0  0  0  0
 31  2  1  0  0  0  0
 32 31  1  0  0  0  0
 33 35  1  0  0  0  0
 33 32  1  0  0  0  0
 34 33  2  0  0  0  0
 36 34  1  0  0  0  0
 36 37  1  0  0  0  0
 37 35  2  0  0  0  0
 38 36  1  0  0  0  0
 39 38  2  0  0  0  0
 40 38  1  0  0  0  0
 41 39  1  0  0  0  0
 42 40  2  0  0  0  0
 43 41  2  0  0  0  0
 43 42  1  0  0  0  0
 44 45  2  0  0  0  0
 44 43  1  0  0  0  0
 46 44  2  0  0  0  0
 47 48  1  0  0  0  0
 49 48  1  0  0  0  0
 49 50  1  0  0  0  0
 50 51  1  0  0  0  0
 52 51  1  0  0  0  0
M  END
>  <REMARK>
 VINA RESULT:    -5.114      3.258      6.338
 INTER + INTRA:         -13.899
 INTER:                  -9.331
 INTRA:                  -4.568
 UNBOUND:                -4.749
 SMILES CC(=O)N[C@@H]1[C@@H](O)C[C@](O)(C(=O)O)O[C@H]1C(O)[C@H](O)CNC(=O)OCc1cn(-c2ccc([N+](=O)[O-])cc2)nn1
 SMILES IDX 21 1 22 2 23 3 20 5 18 6 16 7 15 8 9 9 8 10 14 11 6 12 5 13
 SMILES IDX 10 14 11 16 12 17 13 18 7 20 4 22 2 23 1 25 3 26 17 27 19 29
 SMILES IDX 24 31 25 32 26 33 27 34 39 35 28 36 38 37 29 38 30 39 37 40
 SMILES IDX 31 41 36 42 32 43 33 44 34 45 35 46
 H PARENT 21 4 10 15 13 19 7 21 4 24 17 28 19 30
 Flexibility Score: inf
  4 active torsions:
  status: ('A' for Active; 'I' for Inactive)
    1  A    between atoms: CA   and  CB  
    2  A    between atoms: CB   and  CG  
    3  A    between atoms: CG   and  CD  
    4  A    between atoms: CD   and  CE  

>  <TORSDO>
F 16

>  <BEGIN_>
RES LYS A 131

$$$$
ligand_6_pose_18_2HRL.pdbqt
 OpenBabel07062320523D

  6  5  0  0  0  0  0  0  0  0999 V2000
   33.1930   34.6630    9.2900 C   0  0  0  0  0  0  0  0  0  0  0  0
   32.0600   35.3600   10.0340 C   0  0  0  0  0  0  0  0  0  0  0  0
   30.8210   35.5540    9.1990 C   0  0  0  0  0  0  0  0  0  0  0  0
   30.0400   34.2540    9.0870 C   0  0  0  0  0  0  0  0  0  0  0  0
   28.7980   34.4500    8.2380 C   0  0  0  0  0  0  0  0  0  0  0  0
   28.8940   35.6960    7.4280 N   0  0  0  0  0  0  0  0  0  0  0  0
  1  2  1  0  0  0  0
  3  2  1  0  0  0  0
  4  3  1  0  0  0  0
  5  4  1  0  0  0  0
  6  5  1  0  0  0  0
M  END
>  <EGIN_R>
ES LYS A 135

>  <REMARK>
  4 active torsions:
  status: ('A' for Active; 'I' for Inactive)
    5  A    between atoms: CA   and  CB  
    6  A    between atoms: CB   and  CG  
    7  A    between atoms: CG   and  CD  
    8  A    between atoms: CD   and  CE  

$$$$
