ligand_24_pose_17_2HRL.pdbqt
 OpenBabel07062320523D

 52 53  0  0  1  0  0  0  0  0999 V2000
   25.1190   39.7520    6.0790 N   0  0  0  0  0  0  0  0  0  0  0  0
   25.7350   41.0150    5.9480 C   0  0  0  0  0  0  0  0  0  0  0  0
   26.0600   41.7270    6.9280 O   0  0  0  0  0  0  0  0  0  0  0  0
   24.8860   39.2460    5.1930 H   0  0  0  0  0  0  0  0  0  0  0  0
   24.8020   39.1350    7.3280 C   0  0  0  0  0  0  0  0  0  0  0  0
   25.6920   38.0050    7.7160 C   0  0  2  0  0  0  0  0  0  0  0  0
   26.7680   38.4170    8.6960 C   0  0  1  0  0  0  0  0  0  0  0  0
   27.6590   37.3100    9.1310 C   0  0  2  0  0  0  0  0  0  0  0  0
   27.9850   35.0200    9.0510 C   0  0  2  0  0  0  0  0  0  0  0  0
   28.3820   34.9620   10.4990 C   0  0  0  0  0  0  0  0  0  0  0  0
   27.2000   36.0690    8.6940 O   0  0  0  0  0  0  0  0  0  0  0  0
   28.6930   36.3280   11.0750 C   0  0  1  0  0  0  0  0  0  0  0  0
   27.5890   37.2400   10.6600 C   0  0  1  0  0  0  0  0  0  0  0  0
   27.2020   33.8540    8.8420 O   0  0  0  0  0  0  0  0  0  0  0  0
   27.7840   33.1000    9.1060 H   0  0  0  0  0  0  0  0  0  0  0  0
   29.2110   34.8430    8.2390 C   0  0  0  0  0  0  0  0  0  0  0  0
   30.1610   34.0870    8.5990 O   0  0  0  0  0  0  0  0  0  0  0  0
   29.3890   35.5030    7.0240 O   0  0  0  0  0  0  0  0  0  0  0  0
   29.4000   34.9960    6.1600 H   0  0  0  0  0  0  0  0  0  0  0  0
   28.8510   36.2340   12.4440 O   0  0  0  0  0  0  0  0  0  0  0  0
   28.0110   35.9710   12.8520 H   0  0  0  0  0  0  0  0  0  0  0  0
   27.5990   38.5200   11.2920 N   0  0  0  0  0  0  0  0  0  0  0  0
   26.9510   38.8350   12.4950 C   0  0  0  0  0  0  0  0  0  0  0  0
   28.1400   39.2930   10.8190 H   0  0  0  0  0  0  0  0  0  0  0  0
   27.0390   40.2070   13.0490 C   0  0  0  0  0  0  0  0  0  0  0  0
   26.3050   37.9730   13.0980 O   0  0  0  0  0  0  0  0  0  0  0  0
   27.4950   39.4590    8.1630 O   0  0  0  0  0  0  0  0  0  0  0  0
   26.9950   40.2920    8.0120 H   0  0  0  0  0  0  0  0  0  0  0  0
   26.1990   37.3150    6.6540 O   0  0  0  0  0  0  0  0  0  0  0  0
   26.3140   36.3570    6.9370 H   0  0  0  0  0  0  0  0  0  0  0  0
   26.0090   41.5210    4.6630 O   0  0  0  0  0  0  0  0  0  0  0  0
   26.8650   40.7810    3.8230 C   0  0  0  0  0  0  0  0  0  0  0  0
   27.9140   40.0710    4.5750 C   0  0  0  0  0  0  0  0  0  0  0  0
   29.1300   40.5930    5.0260 C   0  0  0  0  0  0  0  0  0  0  0  0
   27.9200   38.7870    4.9740 N   0  0  0  0  0  0  0  0  0  0  0  0
   29.8040   39.6260    5.6660 N   0  0  0  0  0  0  0  0  0  0  0  0
   29.0500   38.5440    5.6190 N   0  0  0  0  0  0  0  0  0  0  0  0
   31.0970   39.7170    6.2900 C   0  0  0  0  0  0  0  0  0  0  0  0
   30.9960   39.6300    7.7630 C   0  0  0  0  0  0  0  0  0  0  0  0
   30.6380   40.7320    8.5050 C   0  0  0  0  0  0  0  0  0  0  0  0
   31.2610   38.4420    8.3930 C   0  0  0  0  0  0  0  0  0  0  0  0
   30.5450   40.6400    9.8910 C   0  0  0  0  0  0  0  0  0  0  0  0
   31.1720   38.3360    9.7800 C   0  0  0  0  0  0  0  0  0  0  0  0
   30.8140   39.4350   10.5190 C   0  0  0  0  0  0  0  0  0  0  0  0
   30.7160   39.3620   11.9100 O   0  0  0  0  0  0  0  0  0  0  0  0
   30.7460   40.5560   12.6740 C   0  0  0  0  0  0  0  0  0  0  0  0
   29.8670   25.5550   16.9770 C   0  0  0  0  0  0  0  0  0  0  0  0
   28.3450   25.7220   17.0260 C   0  0  0  0  0  0  0  0  0  0  0  0
   27.6010   24.4000   16.9070 C   0  0  0  0  0  0  0  0  0  0  0  0
   26.1550   24.5270   17.2990 C   0  0  0  0  0  0  0  0  0  0  0  0
   25.9480   23.9270   18.6850 C   0  0  0  0  0  0  0  0  0  0  0  0
   24.5220   24.0070   19.0780 N   0  0  0  0  0  0  0  0  0  0  0  0
  1  5  1  0  0  0  0
  2  1  1  0  0  0  0
  2  3  2  0  0  0  0
  4  1  1  0  0  0  0
  6  5  1  6  0  0  0
  6  7  1  0  0  0  0
  7 27  1  6  0  0  0
  8  7  1  6  0  0  0
  8 13  1  0  0  0  0
  9 16  1  6  0  0  0
  9 10  1  0  0  0  0
 10 12  1  0  0  0  0
 11  9  1  0  0  0  0
 11  8  1  0  0  0  0
 12 20  1  1  0  0  0
 13 12  1  0  0  0  0
 13 22  1  1  0  0  0
 14  9  1  0  0  0  0
 14 15  1  0  0  0  0
 16 17  2  0  0  0  0
 18 16  1  0  0  0  0
 19 18  1  0  0  0  0
 20 21  1  0  0  0  0
 22 23  1  0  0  0  0
 23 25  1  0  0  0  0
 23 26  2  0  0  0  0
 24 22  1  0  0  0  0
 28 27  1  0  0  0  0
 29 30  1  0  0  0  0
 29  6  1  0  0  0  0
 31  2  1  0  0  0  0
 32 33  1  0  0  0  0
 32 31  1  0  0  0  0
 33 35  1  0  0  0  0
 33 34  2  0  0  0  0
 34 36  1  0  0  0  0
 35 37  2  0  0  0  0
 36 38  1  0  0  0  0
 37 36  1  0  0  0  0
 38 39  1  0  0  0  0
 39 41  2  0  0  0  0
 39 40  1  0  0  0  0
 40 42  2  0  0  0  0
 41 43  1  0  0  0  0
 42 44  1  0  0  0  0
 43 44  2  0  0  0  0
 44 45  1  0  0  0  0
 45 46  1  0  0  0  0
 47 48  1  0  0  0  0
 49 48  1  0  0  0  0
 49 50  1  0  0  0  0
 50 51  1  0  0  0  0
 51 52  1  0  0  0  0
M  END
>  <REMARK>
 VINA RESULT:    -4.837      7.209     12.709
 INTER + INTRA:         -14.212
 INTER:                  -8.048
 INTRA:                  -6.164
 UNBOUND:                -5.276
 SMILES COc1ccc(Cn2cc(COC(=O)NC[C@@H](O)C(O)[C@@H]3O[C@@](O)(C(=O)O)C[C@H](O)[C@H]3NC(C)=O)nn2)cc1
 SMILES IDX 15 1 13 2 14 3 16 5 17 6 19 7 21 8 23 9 28 10 22 11 29 12
 SMILES IDX 31 13 24 14 25 16 26 17 27 18 30 20 32 22 33 23 34 25 35 26
 SMILES IDX 20 27 18 29 12 31 11 32 10 33 9 34 36 35 8 36 37 37 7 38
 SMILES IDX 6 39 5 40 38 41 4 42 39 43 3 44 2 45 1 46
 H PARENT 15 4 24 15 27 19 30 21 32 24 20 28 18 30
 Flexibility Score: inf
  4 active torsions:
  status: ('A' for Active; 'I' for Inactive)
    1  A    between atoms: CA   and  CB  
    2  A    between atoms: CB   and  CG  
    3  A    between atoms: CG   and  CD  
    4  A    between atoms: CD   and  CE  

>  <TORSDO>
F 17

>  <BEGIN_>
RES LYS A 131

$$$$
ligand_24_pose_17_2HRL.pdbqt
 OpenBabel07062320523D

  6  5  0  0  0  0  0  0  0  0999 V2000
   33.1930   34.6630    9.2900 C   0  0  0  0  0  0  0  0  0  0  0  0
   32.0600   35.3600   10.0340 C   0  0  0  0  0  0  0  0  0  0  0  0
   31.9830   34.9950   11.4940 C   0  0  0  0  0  0  0  0  0  0  0  0
   32.4270   36.1610   12.3630 C   0  0  0  0  0  0  0  0  0  0  0  0
   32.5730   35.7240   13.8080 C   0  0  0  0  0  0  0  0  0  0  0  0
   32.3220   36.8580   14.7400 N   0  0  0  0  0  0  0  0  0  0  0  0
  1  2  1  0  0  0  0
  2  3  1  0  0  0  0
  3  4  1  0  0  0  0
  4  5  1  0  0  0  0
  5  6  1  0  0  0  0
M  END
>  <EGIN_R>
ES LYS A 135

>  <REMARK>
  4 active torsions:
  status: ('A' for Active; 'I' for Inactive)
    5  A    between atoms: CA   and  CB  
    6  A    between atoms: CB   and  CG  
    7  A    between atoms: CG   and  CD  
    8  A    between atoms: CD   and  CE  

$$$$
