ligand_28_pose_11_2HRL.pdbqt
 OpenBabel07062320523D

 53 55  0  0  1  0  0  0  0  0999 V2000
   23.8770   40.8120    6.8120 N   0  0  0  0  0  0  0  0  0  0  0  0
   24.3490   41.8370    7.6790 C   0  0  0  0  0  0  0  0  0  0  0  0
   24.1260   41.7530    8.9300 O   0  0  0  0  0  0  0  0  0  0  0  0
   24.0730   40.9080    5.8050 H   0  0  0  0  0  0  0  0  0  0  0  0
   23.1610   39.7150    7.4120 C   0  0  0  0  0  0  0  0  0  0  0  0
   23.9690   38.4610    7.5210 C   0  0  2  0  0  0  0  0  0  0  0  0
   24.2150   38.0460    8.9540 C   0  0  2  0  0  0  0  0  0  0  0  0
   23.6090   36.6730    9.2280 C   0  0  2  0  0  0  0  0  0  0  0  0
   21.3340   36.3140    8.9450 C   0  0  2  0  0  0  0  0  0  0  0  0
   21.2350   35.3650   10.1180 C   0  0  0  0  0  0  0  0  0  0  0  0
   22.5770   36.3830    8.3850 O   0  0  0  0  0  0  0  0  0  0  0  0
   22.5680   35.1770   10.8130 C   0  0  1  0  0  0  0  0  0  0  0  0
   23.3110   36.4870   10.6920 C   0  0  1  0  0  0  0  0  0  0  0  0
   20.8650   37.5920    9.3040 O   0  0  0  0  0  0  0  0  0  0  0  0
   20.1790   37.9230    8.6970 H   0  0  0  0  0  0  0  0  0  0  0  0
   20.3920   35.8100    7.9080 C   0  0  0  0  0  0  0  0  0  0  0  0
   19.5780   36.6030    7.3440 O   0  0  0  0  0  0  0  0  0  0  0  0
   20.3400   34.4890    7.4990 O   0  0  0  0  0  0  0  0  0  0  0  0
   20.7830   33.7880    8.1010 H   0  0  0  0  0  0  0  0  0  0  0  0
   22.4030   34.7750   12.1340 O   0  0  0  0  0  0  0  0  0  0  0  0
   22.6650   33.8240   12.1890 H   0  0  0  0  0  0  0  0  0  0  0  0
   24.5060   36.5450   11.4550 N   0  0  0  0  0  0  0  0  0  0  0  0
   24.6880   37.4680   12.5170 C   0  0  0  0  0  0  0  0  0  0  0  0
   25.2780   35.8600   11.2010 H   0  0  0  0  0  0  0  0  0  0  0  0
   25.9630   37.5010   13.3040 C   0  0  0  0  0  0  0  0  0  0  0  0
   23.7300   38.2460   12.7590 O   0  0  0  0  0  0  0  0  0  0  0  0
   23.5510   38.9550    9.7770 O   0  0  0  0  0  0  0  0  0  0  0  0
   22.8480   38.4870   10.2920 H   0  0  0  0  0  0  0  0  0  0  0  0
   25.1860   38.6850    6.8780 O   0  0  0  0  0  0  0  0  0  0  0  0
   25.2640   39.6080    6.5350 H   0  0  0  0  0  0  0  0  0  0  0  0
   25.0520   42.9460    7.2190 O   0  0  0  0  0  0  0  0  0  0  0  0
   26.4660   42.9660    7.3810 C   0  0  0  0  0  0  0  0  0  0  0  0
   27.0730   41.7530    6.7870 C   0  0  0  0  0  0  0  0  0  0  0  0
   28.0880   41.0340    7.3500 C   0  0  0  0  0  0  0  0  0  0  0  0
   26.7720   41.1460    5.6390 N   0  0  0  0  0  0  0  0  0  0  0  0
   28.3730   40.0140    6.5280 N   0  0  0  0  0  0  0  0  0  0  0  0
   27.5680   40.0940    5.4960 N   0  0  0  0  0  0  0  0  0  0  0  0
   29.3920   39.0140    6.7610 C   0  0  0  0  0  0  0  0  0  0  0  0
   28.6890   37.7470    7.1050 C   0  0  0  0  0  0  0  0  0  0  0  0
   28.5590   36.7780    6.1370 C   0  0  0  0  0  0  0  0  0  0  0  0
   28.1680   37.5180    8.3540 C   0  0  0  0  0  0  0  0  0  0  0  0
   27.9060   35.5870    6.4360 C   0  0  0  0  0  0  0  0  0  0  0  0
   27.5200   36.3340    8.6470 C   0  0  0  0  0  0  0  0  0  0  0  0
   27.3840   35.3620    7.6940 C   0  0  0  0  0  0  0  0  0  0  0  0
   26.9280   35.8970    9.8170 O   0  0  0  0  0  0  0  0  0  0  0  0
   26.7060   34.2870    8.2300 O   0  0  0  0  0  0  0  0  0  0  0  0
   26.6150   34.5350    9.6270 C   0  0  0  0  0  0  0  0  0  0  0  0
   29.8670   25.5550   16.9770 C   0  0  0  0  0  0  0  0  0  0  0  0
   28.3450   25.7220   17.0260 C   0  0  0  0  0  0  0  0  0  0  0  0
   27.6020   24.3990   16.9230 C   0  0  0  0  0  0  0  0  0  0  0  0
   26.1730   24.5150   17.3770 C   0  0  0  0  0  0  0  0  0  0  0  0
   26.0450   25.6710   18.3630 C   0  0  0  0  0  0  0  0  0  0  0  0
   25.5280   25.1880   19.6650 N   0  0  0  0  0  0  0  0  0  0  0  0
  1  5  1  0  0  0  0
  1  2  1  0  0  0  0
  2  3  2  0  0  0  0
  4  1  1  0  0  0  0
  6  5  1  1  0  0  0
  6  7  1  0  0  0  0
  7 27  1  1  0  0  0
  8  7  1  1  0  0  0
  8 13  1  0  0  0  0
  9 16  1  6  0  0  0
  9 14  1  0  0  0  0
  9 10  1  0  0  0  0
 10 12  1  0  0  0  0
 11  9  1  0  0  0  0
 11  8  1  0  0  0  0
 12 20  1  1  0  0  0
 13 12  1  0  0  0  0
 13 22  1  1  0  0  0
 15 14  1  0  0  0  0
 17 16  2  0  0  0  0
 18 16  1  0  0  0  0
 18 19  1  0  0  0  0
 20 21  1  0  0  0  0
 22 23  1  0  0  0  0
 23 26  2  0  0  0  0
 23 25  1  0  0  0  0
 24 22  1  0  0  0  0
 27 28  1  0  0  0  0
 29  6  1  0  0  0  0
 30 29  1  0  0  0  0
 31 32  1  0  0  0  0
 31  2  1  0  0  0  0
 33 34  2  0  0  0  0
 33 32  1  0  0  0  0
 35 33  1  0  0  0  0
 36 38  1  0  0  0  0
 36 34  1  0  0  0  0
 37 35  2  0  0  0  0
 37 36  1  0  0  0  0
 38 39  1  0  0  0  0
 39 41  2  0  0  0  0
 40 42  2  0  0  0  0
 40 39  1  0  0  0  0
 41 43  1  0  0  0  0
 42 44  1  0  0  0  0
 43 45  1  0  0  0  0
 44 46  1  0  0  0  0
 44 43  2  0  0  0  0
 46 47  1  0  0  0  0
 47 45  1  0  0  0  0
 48 49  1  0  0  0  0
 50 49  1  0  0  0  0
 50 51  1  0  0  0  0
 51 52  1  0  0  0  0
 52 53  1  0  0  0  0
M  END
>  <REMARK>
 VINA RESULT:    -4.997      3.529      8.079
 INTER + INTRA:         -14.943
 INTER:                  -8.295
 INTRA:                  -6.648
 UNBOUND:                -6.003
 SMILES CC(=O)N[C@@H]1[C@@H](O)C[C@](O)(C(=O)O)O[C@H]1C(O)[C@H](O)CNC(=O)OCc1cn(Cc2ccc3c(c2)OCO3)nn1
 SMILES IDX 21 1 22 2 23 3 20 5 18 6 16 7 15 8 9 9 8 10 14 11 6 12 5 13
 SMILES IDX 10 14 11 16 12 17 13 18 7 20 4 22 2 23 1 25 3 26 17 27 19 29
 SMILES IDX 24 31 25 32 26 33 27 34 40 35 28 36 39 37 29 38 30 39 31 40
 SMILES IDX 35 41 32 42 34 43 33 44 36 45 38 46 37 47
 H PARENT 21 4 10 15 13 19 7 21 4 24 17 28 19 30
 Flexibility Score: inf
  4 active torsions:
  status: ('A' for Active; 'I' for Inactive)
    1  A    between atoms: CA   and  CB  
    2  A    between atoms: CB   and  CG  
    3  A    between atoms: CG   and  CD  
    4  A    between atoms: CD   and  CE  

>  <TORSDO>
F 16

>  <BEGIN_>
RES LYS A 131

$$$$
ligand_28_pose_11_2HRL.pdbqt
 OpenBabel07062320523D

  6  5  0  0  0  0  0  0  0  0999 V2000
   33.1930   34.6630    9.2900 C   0  0  0  0  0  0  0  0  0  0  0  0
   32.0600   35.3600   10.0340 C   0  0  0  0  0  0  0  0  0  0  0  0
   30.7160   34.7110    9.8290 C   0  0  0  0  0  0  0  0  0  0  0  0
   29.8870   34.7800   11.1030 C   0  0  0  0  0  0  0  0  0  0  0  0
   30.7870   34.8730   12.3200 C   0  0  0  0  0  0  0  0  0  0  0  0
   30.1860   35.7450   13.3660 N   0  0  0  0  0  0  0  0  0  0  0  0
  1  2  1  0  0  0  0
  3  2  1  0  0  0  0
  3  4  1  0  0  0  0
  4  5  1  0  0  0  0
  5  6  1  0  0  0  0
M  END
>  <EGIN_R>
ES LYS A 135

>  <REMARK>
  4 active torsions:
  status: ('A' for Active; 'I' for Inactive)
    5  A    between atoms: CA   and  CB  
    6  A    between atoms: CB   and  CG  
    7  A    between atoms: CG   and  CD  
    8  A    between atoms: CD   and  CE  

$$$$
