ligand_52_pose_2_2HRL.pdbqt
 OpenBabel07062320523D

 49 50  0  0  1  0  0  0  0  0999 V2000
   26.9840   28.1590   17.7830 C   0  0  0  0  0  0  0  0  0  0  0  0
   27.2550   28.0380   19.2380 C   0  0  2  0  0  0  0  0  0  0  0  0
   27.5670   29.3270   19.8990 C   0  0  2  0  0  0  0  0  0  0  0  0
   28.9840   29.6190   20.2500 C   0  0  2  0  0  0  0  0  0  0  0  0
   30.8140   29.0470   21.4590 C   0  0  2  0  0  0  0  0  0  0  0  0
   31.4920   30.3130   21.0770 C   0  0  0  0  0  0  0  0  0  0  0  0
   29.4330   29.0400   21.3930 O   0  0  0  0  0  0  0  0  0  0  0  0
   30.8340   31.1440   20.0320 C   0  0  1  0  0  0  0  0  0  0  0  0
   29.2920   31.0900   20.2380 C   0  0  1  0  0  0  0  0  0  0  0  0
   31.1170   28.8630   22.8460 O   0  0  0  0  0  0  0  0  0  0  0  0
   31.8120   28.1650   22.8490 H   0  0  0  0  0  0  0  0  0  0  0  0
   31.3740   27.8590   20.7750 C   0  0  0  0  0  0  0  0  0  0  0  0
   31.0090   26.7100   21.1250 O   0  0  0  0  0  0  0  0  0  0  0  0
   32.3010   27.9060   19.7420 O   0  0  0  0  0  0  0  0  0  0  0  0
   32.2760   28.7500   19.1580 H   0  0  0  0  0  0  0  0  0  0  0  0
   31.1680   32.4910   20.1820 O   0  0  0  0  0  0  0  0  0  0  0  0
   30.3410   33.0310   20.2360 H   0  0  0  0  0  0  0  0  0  0  0  0
   28.7360   31.6720   19.0460 N   0  0  0  0  0  0  0  0  0  0  0  0
   27.9910   32.8720   19.0270 C   0  0  0  0  0  0  0  0  0  0  0  0
   28.8870   31.1850   18.1230 H   0  0  0  0  0  0  0  0  0  0  0  0
   27.4590   33.3900   17.7460 C   0  0  0  0  0  0  0  0  0  0  0  0
   27.7870   33.4870   20.0980 O   0  0  0  0  0  0  0  0  0  0  0  0
   26.6350   29.7350   20.8340 O   0  0  0  0  0  0  0  0  0  0  0  0
   26.8540   30.5260   21.3510 H   0  0  0  0  0  0  0  0  0  0  0  0
   28.3840   27.2070   19.4450 O   0  0  0  0  0  0  0  0  0  0  0  0
   28.4450   26.6130   18.6700 H   0  0  0  0  0  0  0  0  0  0  0  0
   27.9300   28.9060   17.0080 N   0  0  0  0  0  0  0  0  0  0  0  0
   27.6540   30.0170   16.2210 C   0  0  0  0  0  0  0  0  0  0  0  0
   28.9480   28.5880   17.0290 H   0  0  0  0  0  0  0  0  0  0  0  0
   26.5070   30.4700   16.1150 O   0  0  0  0  0  0  0  0  0  0  0  0
   28.6430   30.7040   15.4960 O   0  0  0  0  0  0  0  0  0  0  0  0
   29.9640   30.7860   15.9800 C   0  0  0  0  0  0  0  0  0  0  0  0
   30.4750   32.1690   15.9480 C   0  0  0  0  0  0  0  0  0  0  0  0
   30.4870   32.9450   14.8000 C   0  0  0  0  0  0  0  0  0  0  0  0
   30.9950   32.9390   16.9040 N   0  0  0  0  0  0  0  0  0  0  0  0
   31.0090   34.1470   15.0970 N   0  0  0  0  0  0  0  0  0  0  0  0
   31.3110   34.1290   16.3700 N   0  0  0  0  0  0  0  0  0  0  0  0
   31.2060   35.2490   14.2060 C   0  0  0  0  0  0  0  0  0  0  0  0
   30.3240   36.3150   14.1720 C   0  0  0  0  0  0  0  0  0  0  0  0
   32.2930   35.2610   13.3560 C   0  0  0  0  0  0  0  0  0  0  0  0
   30.5580   37.3680   13.2850 C   0  0  0  0  0  0  0  0  0  0  0  0
   32.4970   36.3010   12.5000 N   0  0  0  0  0  0  0  0  0  0  0  0
   31.6580   37.3510   12.4460 C   0  0  0  0  0  0  0  0  0  0  0  0
   29.8670   25.5550   16.9770 C   0  0  0  0  0  0  0  0  0  0  0  0
   28.3450   25.7220   17.0260 C   0  0  0  0  0  0  0  0  0  0  0  0
   27.6010   24.4020   16.8890 C   0  0  0  0  0  0  0  0  0  0  0  0
   26.5340   24.2420   17.9360 C   0  0  0  0  0  0  0  0  0  0  0  0
   25.1870   24.0130   17.2590 C   0  0  0  0  0  0  0  0  0  0  0  0
   24.4530   22.9100   17.9240 N   0  0  0  0  0  0  0  0  0  0  0  0
  2  1  1  6  0  0  0
  2 25  1  0  0  0  0
  2  3  1  0  0  0  0
  3 23  1  1  0  0  0
  4  3  1  1  0  0  0
  4  7  1  0  0  0  0
  5 12  1  6  0  0  0
  5 10  1  0  0  0  0
  6  5  1  0  0  0  0
  7  5  1  0  0  0  0
  8 16  1  1  0  0  0
  8  9  1  0  0  0  0
  8  6  1  0  0  0  0
  9 18  1  6  0  0  0
  9  4  1  0  0  0  0
 10 11  1  0  0  0  0
 12 13  2  0  0  0  0
 14 12  1  0  0  0  0
 15 14  1  0  0  0  0
 16 17  1  0  0  0  0
 19 18  1  0  0  0  0
 19 22  2  0  0  0  0
 20 18  1  0  0  0  0
 21 19  1  0  0  0  0
 23 24  1  0  0  0  0
 26 25  1  0  0  0  0
 27 29  1  0  0  0  0
 27  1  1  0  0  0  0
 28 27  1  0  0  0  0
 30 28  2  0  0  0  0
 31 32  1  0  0  0  0
 31 28  1  0  0  0  0
 33 32  1  0  0  0  0
 33 35  1  0  0  0  0
 34 36  1  0  0  0  0
 34 33  2  0  0  0  0
 36 37  1  0  0  0  0
 37 35  2  0  0  0  0
 38 36  1  0  0  0  0
 39 38  1  0  0  0  0
 40 38  2  0  0  0  0
 41 39  2  0  0  0  0
 42 40  1  0  0  0  0
 43 42  2  0  0  0  0
 43 41  1  0  0  0  0
 44 45  1  0  0  0  0
 46 45  1  0  0  0  0
 46 47  1  0  0  0  0
 48 49  1  0  0  0  0
 48 47  1  0  0  0  0
M  END
>  <REMARK>
 VINA RESULT:    -5.161      2.013      3.829
 INTER + INTRA:         -14.096
 INTER:                  -8.237
 INTRA:                  -5.859
 UNBOUND:                -5.164
 SMILES CC(=O)N[C@@H]1[C@@H](O)C[C@](O)(C(=O)O)O[C@H]1C(O)[C@H](O)CNC(=O)OCc1cn(-c2cccnc2)nn1
 SMILES IDX 20 1 18 2 16 3 15 4 9 5 8 6 14 7 6 8 5 9 10 10 11 12 12 13
 SMILES IDX 13 14 7 16 4 18 2 19 1 21 3 22 17 23 19 25 21 27 22 28 23 30
 SMILES IDX 24 31 25 32 26 33 27 34 36 35 28 36 35 37 29 38 30 39 34 40
 SMILES IDX 31 41 33 42 32 43
 H PARENT 10 11 13 15 7 17 4 20 17 24 19 26 21 29
 Flexibility Score: inf
  4 active torsions:
  status: ('A' for Active; 'I' for Inactive)
    1  A    between atoms: CA   and  CB  
    2  A    between atoms: CB   and  CG  
    3  A    between atoms: CG   and  CD  
    4  A    between atoms: CD   and  CE  

>  <TORSDO>
F 15

>  <BEGIN_>
RES LYS A 131

$$$$
ligand_52_pose_2_2HRL.pdbqt
 OpenBabel07062320523D

  6  5  0  0  0  0  0  0  0  0999 V2000
   33.1930   34.6630    9.2900 C   0  0  0  0  0  0  0  0  0  0  0  0
   32.0600   35.3600   10.0340 C   0  0  0  0  0  0  0  0  0  0  0  0
   30.9020   35.7420    9.1480 C   0  0  0  0  0  0  0  0  0  0  0  0
   30.3730   34.5260    8.4040 C   0  0  0  0  0  0  0  0  0  0  0  0
   28.9210   34.7310    8.0130 C   0  0  0  0  0  0  0  0  0  0  0  0
   28.8110   35.4890    6.7370 N   0  0  0  0  0  0  0  0  0  0  0  0
  1  2  1  0  0  0  0
  3  2  1  0  0  0  0
  4  3  1  0  0  0  0
  5  4  1  0  0  0  0
  6  5  1  0  0  0  0
M  END
>  <EGIN_R>
ES LYS A 135

>  <REMARK>
  4 active torsions:
  status: ('A' for Active; 'I' for Inactive)
    5  A    between atoms: CA   and  CB  
    6  A    between atoms: CB   and  CG  
    7  A    between atoms: CG   and  CD  
    8  A    between atoms: CD   and  CE  

$$$$
