ligand_12_pose_11_2HRL.pdbqt
 OpenBabel07062320523D

 52 53  0  0  1  0  0  0  0  0999 V2000
   25.7620   27.0760   22.6840 N   0  0  0  0  0  0  0  0  0  0  0  0
   25.1740   28.3290   22.3410 C   0  0  0  0  0  0  0  0  0  0  0  0
   25.4670   29.3880   22.9760 O   0  0  0  0  0  0  0  0  0  0  0  0
   25.5010   26.2360   22.1450 H   0  0  0  0  0  0  0  0  0  0  0  0
   26.7050   27.0670   23.7850 C   0  0  0  0  0  0  0  0  0  0  0  0
   28.1330   27.0620   23.3090 C   0  0  2  0  0  0  0  0  0  0  0  0
   28.8120   28.3570   23.7010 C   0  0  2  0  0  0  0  0  0  0  0  0
   29.9540   28.7050   22.8040 C   0  0  2  0  0  0  0  0  0  0  0  0
   30.3920   29.7350   20.7600 C   0  0  2  0  0  0  0  0  0  0  0  0
   31.6930   28.9450   20.7900 C   0  0  0  0  0  0  0  0  0  0  0  0
   29.4300   29.2250   21.6250 O   0  0  0  0  0  0  0  0  0  0  0  0
   31.3240   27.5110   21.1020 C   0  0  1  0  0  0  0  0  0  0  0  0
   30.8480   27.5130   22.5450 C   0  0  1  0  0  0  0  0  0  0  0  0
   29.8820   29.5660   19.4750 O   0  0  0  0  0  0  0  0  0  0  0  0
   30.2710   28.7770   19.0200 H   0  0  0  0  0  0  0  0  0  0  0  0
   30.6500   31.1630   20.9820 C   0  0  0  0  0  0  0  0  0  0  0  0
   31.8350   31.5760   21.0350 O   0  0  0  0  0  0  0  0  0  0  0  0
   29.6440   32.1090   21.1420 O   0  0  0  0  0  0  0  0  0  0  0  0
   29.1680   32.1470   22.0380 H   0  0  0  0  0  0  0  0  0  0  0  0
   30.3200   27.0440   20.2580 O   0  0  0  0  0  0  0  0  0  0  0  0
   30.2520   26.0460   20.3700 H   0  0  0  0  0  0  0  0  0  0  0  0
   32.0280   27.6170   23.3770 N   0  0  0  0  0  0  0  0  0  0  0  0
   32.1410   26.8310   24.5550 C   0  0  0  0  0  0  0  0  0  0  0  0
   32.8330   28.2540   23.1610 H   0  0  0  0  0  0  0  0  0  0  0  0
   33.3320   26.8970   25.4460 C   0  0  0  0  0  0  0  0  0  0  0  0
   31.2210   26.0400   24.8890 O   0  0  0  0  0  0  0  0  0  0  0  0
   29.1120   28.3360   25.0410 O   0  0  0  0  0  0  0  0  0  0  0  0
   28.7290   29.1660   25.4460 H   0  0  0  0  0  0  0  0  0  0  0  0
   28.1490   26.8730   21.9330 O   0  0  0  0  0  0  0  0  0  0  0  0
   28.7240   26.0940   21.7060 H   0  0  0  0  0  0  0  0  0  0  0  0
   24.2590   28.4580   21.3050 O   0  0  0  0  0  0  0  0  0  0  0  0
   24.2860   27.6760   20.1290 C   0  0  0  0  0  0  0  0  0  0  0  0
   25.4890   27.9230   19.3040 C   0  0  0  0  0  0  0  0  0  0  0  0
   25.6500   28.6390   18.1360 C   0  0  0  0  0  0  0  0  0  0  0  0
   26.7130   27.4450   19.5890 N   0  0  0  0  0  0  0  0  0  0  0  0
   26.9480   28.5780   17.7490 N   0  0  0  0  0  0  0  0  0  0  0  0
   27.5560   27.8430   18.6610 N   0  0  0  0  0  0  0  0  0  0  0  0
   27.5560   29.1990   16.5620 C   0  0  0  0  0  0  0  0  0  0  0  0
   28.4640   30.1720   16.9680 O   0  0  0  0  0  0  0  0  0  0  0  0
   29.2170   30.6610   15.9260 C   0  0  0  0  0  0  0  0  0  0  0  0
   30.1010   31.7880   16.2840 C   0  0  0  0  0  0  0  0  0  0  0  0
   30.9730   32.3000   15.3440 C   0  0  0  0  0  0  0  0  0  0  0  0
   30.0720   32.3460   17.5370 C   0  0  0  0  0  0  0  0  0  0  0  0
   31.8140   33.3710   15.6590 C   0  0  0  0  0  0  0  0  0  0  0  0
   30.9090   33.4070   17.8440 C   0  0  0  0  0  0  0  0  0  0  0  0
   31.7710   33.9180   16.9260 C   0  0  0  0  0  0  0  0  0  0  0  0
   29.8670   25.5550   16.9770 C   0  0  0  0  0  0  0  0  0  0  0  0
   28.3450   25.7220   17.0260 C   0  0  0  0  0  0  0  0  0  0  0  0
   27.6010   24.4040   16.8720 C   0  0  0  0  0  0  0  0  0  0  0  0
   26.1770   24.4990   17.3470 C   0  0  0  0  0  0  0  0  0  0  0  0
   25.9510   23.5020   18.4790 C   0  0  0  0  0  0  0  0  0  0  0  0
   25.5180   24.2040   19.7100 N   0  0  0  0  0  0  0  0  0  0  0  0
  1  5  1  0  0  0  0
  2  1  1  0  0  0  0
  2  3  2  0  0  0  0
  4  1  1  0  0  0  0
  6  7  1  0  0  0  0
  6  5  1  6  0  0  0
  7 27  1  1  0  0  0
  8  7  1  1  0  0  0
  9 14  1  6  0  0  0
  9 10  1  0  0  0  0
  9 16  1  0  0  0  0
  9 11  1  0  0  0  0
 10 12  1  0  0  0  0
 11  8  1  0  0  0  0
 12 20  1  6  0  0  0
 12 13  1  0  0  0  0
 13  8  1  0  0  0  0
 13 22  1  1  0  0  0
 15 14  1  0  0  0  0
 16 17  2  0  0  0  0
 16 18  1  0  0  0  0
 18 19  1  0  0  0  0
 20 21  1  0  0  0  0
 22 23  1  0  0  0  0
 23 26  2  0  0  0  0
 23 25  1  0  0  0  0
 24 22  1  0  0  0  0
 27 28  1  0  0  0  0
 29  6  1  0  0  0  0
 30 29  1  0  0  0  0
 31  2  1  0  0  0  0
 32 31  1  0  0  0  0
 33 35  1  0  0  0  0
 33 32  1  0  0  0  0
 34 33  2  0  0  0  0
 36 34  1  0  0  0  0
 36 37  1  0  0  0  0
 37 35  2  0  0  0  0
 38 39  1  0  0  0  0
 38 36  1  0  0  0  0
 40 41  1  0  0  0  0
 40 39  1  0  0  0  0
 41 43  2  0  0  0  0
 42 44  2  0  0  0  0
 42 41  1  0  0  0  0
 43 45  1  0  0  0  0
 44 46  1  0  0  0  0
 46 45  2  0  0  0  0
 47 48  1  0  0  0  0
 49 48  1  0  0  0  0
 49 50  1  0  0  0  0
 50 51  1  0  0  0  0
 51 52  1  0  0  0  0
M  END
>  <REMARK>
 VINA RESULT:    -6.081      7.657     14.053
 INTER + INTRA:         -15.365
 INTER:                  -8.940
 INTRA:                  -6.425
 UNBOUND:                -3.774
 SMILES CC(=O)N[C@@H]1[C@@H](O)C[C@](O)(C(=O)O)O[C@H]1C(O)[C@H](O)CNC(=O)OCc1cn(COCc2ccccc2)nn1
 SMILES IDX 21 1 22 2 23 3 20 5 18 6 16 7 15 8 9 9 8 10 14 11 6 12 5 13
 SMILES IDX 10 14 11 16 12 17 13 18 7 20 4 22 2 23 1 25 3 26 17 27 19 29
 SMILES IDX 24 31 25 32 26 33 27 34 39 35 28 36 38 37 29 38 30 39 31 40
 SMILES IDX 32 41 33 42 37 43 34 44 36 45 35 46
 H PARENT 21 4 10 15 13 19 7 21 4 24 17 28 19 30
 Flexibility Score: inf
  4 active torsions:
  status: ('A' for Active; 'I' for Inactive)
    1  A    between atoms: CA   and  CB  
    2  A    between atoms: CB   and  CG  
    3  A    between atoms: CG   and  CD  
    4  A    between atoms: CD   and  CE  

>  <TORSDO>
F 18

>  <BEGIN_>
RES LYS A 131

$$$$
ligand_12_pose_11_2HRL.pdbqt
 OpenBabel07062320523D

  6  5  0  0  0  0  0  0  0  0999 V2000
   33.1930   34.6630    9.2900 C   0  0  0  0  0  0  0  0  0  0  0  0
   32.0600   35.3600   10.0340 C   0  0  0  0  0  0  0  0  0  0  0  0
   30.6960   34.8120    9.7030 C   0  0  0  0  0  0  0  0  0  0  0  0
   30.1800   35.4050    8.4010 C   0  0  0  0  0  0  0  0  0  0  0  0
   28.8660   34.7610    8.0060 C   0  0  0  0  0  0  0  0  0  0  0  0
   28.2790   35.4280    6.8100 N   0  0  0  0  0  0  0  0  0  0  0  0
  1  2  1  0  0  0  0
  3  2  1  0  0  0  0
  4  3  1  0  0  0  0
  5  4  1  0  0  0  0
  6  5  1  0  0  0  0
M  END
>  <EGIN_R>
ES LYS A 135

>  <REMARK>
  4 active torsions:
  status: ('A' for Active; 'I' for Inactive)
    5  A    between atoms: CA   and  CB  
    6  A    between atoms: CB   and  CG  
    7  A    between atoms: CG   and  CD  
    8  A    between atoms: CD   and  CE  

$$$$
