ligand_27_pose_5_2HRL.pdbqt
 OpenBabel07062320523D

 50 51  0  0  1  0  0  0  0  0999 V2000
   26.8110   34.2570   17.0600 C   0  0  0  0  0  0  0  0  0  0  0  0
   27.4190   33.2480   16.1290 C   0  0  2  0  0  0  0  0  0  0  0  0
   28.3950   33.8500   15.1610 C   0  0  2  0  0  0  0  0  0  0  0  0
   29.5940   34.4510   15.8990 C   0  0  2  0  0  0  0  0  0  0  0  0
   31.3670   34.9800   14.4480 C   0  0  2  0  0  0  0  0  0  0  0  0
   32.3250   34.2990   15.4160 C   0  0  0  0  0  0  0  0  0  0  0  0
   30.2140   35.3030   15.0760 O   0  0  0  0  0  0  0  0  0  0  0  0
   31.6330   32.9770   15.7440 C   0  0  1  0  0  0  0  0  0  0  0  0
   30.3750   33.3310   16.4900 C   0  0  1  0  0  0  0  0  0  0  0  0
   31.2180   34.1050   13.3810 O   0  0  0  0  0  0  0  0  0  0  0  0
   31.1070   34.6360   12.5540 H   0  0  0  0  0  0  0  0  0  0  0  0
   31.9880   36.2280   13.9450 C   0  0  0  0  0  0  0  0  0  0  0  0
   32.2610   36.3230   12.7270 O   0  0  0  0  0  0  0  0  0  0  0  0
   32.2820   37.3060   14.7680 O   0  0  0  0  0  0  0  0  0  0  0  0
   32.3850   38.2300   14.3360 H   0  0  0  0  0  0  0  0  0  0  0  0
   31.2700   32.2910   14.5910 O   0  0  0  0  0  0  0  0  0  0  0  0
   30.4550   31.7290   14.7260 H   0  0  0  0  0  0  0  0  0  0  0  0
   30.7650   33.6330   17.8510 N   0  0  0  0  0  0  0  0  0  0  0  0
   30.5410   32.6750   18.8740 C   0  0  0  0  0  0  0  0  0  0  0  0
   31.2150   34.5600   18.1040 H   0  0  0  0  0  0  0  0  0  0  0  0
   30.9420   32.9920   20.2680 C   0  0  0  0  0  0  0  0  0  0  0  0
   30.0070   31.5710   18.5930 O   0  0  0  0  0  0  0  0  0  0  0  0
   27.6990   34.8770   14.4860 O   0  0  0  0  0  0  0  0  0  0  0  0
   26.9160   35.1530   14.9820 H   0  0  0  0  0  0  0  0  0  0  0  0
   26.3880   32.6260   15.4020 O   0  0  0  0  0  0  0  0  0  0  0  0
   25.8780   33.3110   14.9340 H   0  0  0  0  0  0  0  0  0  0  0  0
   25.4620   34.5910   16.6160 N   0  0  0  0  0  0  0  0  0  0  0  0
   25.1510   35.8960   16.1620 C   0  0  0  0  0  0  0  0  0  0  0  0
   24.7410   33.8430   16.6440 H   0  0  0  0  0  0  0  0  0  0  0  0
   26.0550   36.7690   16.1450 O   0  0  0  0  0  0  0  0  0  0  0  0
   23.8840   36.2560   15.7330 O   0  0  0  0  0  0  0  0  0  0  0  0
   23.6160   36.2330   14.3480 C   0  0  0  0  0  0  0  0  0  0  0  0
   23.8980   34.8730   13.8170 C   0  0  0  0  0  0  0  0  0  0  0  0
   23.0000   33.8270   13.7040 C   0  0  0  0  0  0  0  0  0  0  0  0
   25.0590   34.3840   13.3440 N   0  0  0  0  0  0  0  0  0  0  0  0
   23.6260   32.7500   13.1750 N   0  0  0  0  0  0  0  0  0  0  0  0
   24.8780   33.1260   12.9700 N   0  0  0  0  0  0  0  0  0  0  0  0
   23.0520   31.4780   12.9010 C   0  0  0  0  0  0  0  0  0  0  0  0
   23.8510   30.3550   12.9530 C   0  0  0  0  0  0  0  0  0  0  0  0
   21.7230   31.3000   12.5810 C   0  0  0  0  0  0  0  0  0  0  0  0
   23.3380   29.0950   12.6930 C   0  0  0  0  0  0  0  0  0  0  0  0
   21.1790   30.0610   12.3170 C   0  0  0  0  0  0  0  0  0  0  0  0
   22.0050   28.9570   12.3770 C   0  0  0  0  0  0  0  0  0  0  0  0
   19.4660   29.8780   11.9100 Cl  0  0  0  0  0  0  0  0  0  0  0  0
   29.8670   25.5550   16.9770 C   0  0  0  0  0  0  0  0  0  0  0  0
   28.3450   25.7220   17.0260 C   0  0  0  0  0  0  0  0  0  0  0  0
   27.6010   24.4040   16.8770 C   0  0  0  0  0  0  0  0  0  0  0  0
   26.4070   24.3210   17.7880 C   0  0  0  0  0  0  0  0  0  0  0  0
   25.7010   22.9860   17.5810 C   0  0  0  0  0  0  0  0  0  0  0  0
   24.7100   22.7510   18.6580 N   0  0  0  0  0  0  0  0  0  0  0  0
  2  1  1  1  0  0  0
  3 23  1  1  0  0  0
  3  2  1  0  0  0  0
  4  3  1  6  0  0  0
  4  9  1  0  0  0  0
  5 10  1  6  0  0  0
  5  7  1  0  0  0  0
  5  6  1  0  0  0  0
  6  8  1  0  0  0  0
  7  4  1  0  0  0  0
  8 16  1  6  0  0  0
  8  9  1  0  0  0  0
  9 18  1  1  0  0  0
 11 10  1  0  0  0  0
 12  5  1  0  0  0  0
 12 14  1  0  0  0  0
 13 12  2  0  0  0  0
 15 14  1  0  0  0  0
 16 17  1  0  0  0  0
 18 20  1  0  0  0  0
 18 19  1  0  0  0  0
 19 21  1  0  0  0  0
 22 19  2  0  0  0  0
 23 24  1  0  0  0  0
 25  2  1  0  0  0  0
 26 25  1  0  0  0  0
 27 29  1  0  0  0  0
 27  1  1  0  0  0  0
 28 27  1  0  0  0  0
 30 28  2  0  0  0  0
 31 28  1  0  0  0  0
 32 31  1  0  0  0  0
 33 32  1  0  0  0  0
 34 33  2  0  0  0  0
 35 33  1  0  0  0  0
 36 34  1  0  0  0  0
 37 36  1  0  0  0  0
 37 35  2  0  0  0  0
 38 39  1  0  0  0  0
 38 36  1  0  0  0  0
 40 38  2  0  0  0  0
 41 39  2  0  0  0  0
 42 43  2  0  0  0  0
 42 40  1  0  0  0  0
 43 41  1  0  0  0  0
 44 42  1  0  0  0  0
 45 46  1  0  0  0  0
 47 46  1  0  0  0  0
 47 48  1  0  0  0  0
 49 48  1  0  0  0  0
 49 50  1  0  0  0  0
M  END
>  <REMARK>
 VINA RESULT:    -5.749      4.986      7.877
 INTER + INTRA:         -14.447
 INTER:                  -8.716
 INTRA:                  -5.732
 UNBOUND:                -4.497
 SMILES CC(=O)N[C@@H]1[C@@H](O)C[C@](O)(C(=O)O)O[C@H]1C(O)[C@H](O)CNC(=O)OCc1cn(-c2cccc(Cl)c2)nn1
 SMILES IDX 20 1 18 2 16 3 15 4 9 5 8 6 14 7 6 8 5 9 10 10 11 12 12 13
 SMILES IDX 13 14 7 16 4 18 2 19 1 21 3 22 17 23 19 25 21 27 22 28 23 30
 SMILES IDX 24 31 25 32 26 33 27 34 37 35 28 36 36 37 29 38 30 39 35 40
 SMILES IDX 31 41 33 42 32 43 34 44
 H PARENT 10 11 13 15 7 17 4 20 17 24 19 26 21 29
 Flexibility Score: inf
  4 active torsions:
  status: ('A' for Active; 'I' for Inactive)
    1  A    between atoms: CA   and  CB  
    2  A    between atoms: CB   and  CG  
    3  A    between atoms: CG   and  CD  
    4  A    between atoms: CD   and  CE  

>  <TORSDO>
F 15

>  <BEGIN_>
RES LYS A 131

$$$$
ligand_27_pose_5_2HRL.pdbqt
 OpenBabel07062320523D

  6  5  0  0  0  0  0  0  0  0999 V2000
   33.1930   34.6630    9.2900 C   0  0  0  0  0  0  0  0  0  0  0  0
   32.0600   35.3600   10.0340 C   0  0  0  0  0  0  0  0  0  0  0  0
   30.7780   35.4340    9.2460 C   0  0  0  0  0  0  0  0  0  0  0  0
   30.2220   34.0410    8.9930 C   0  0  0  0  0  0  0  0  0  0  0  0
   28.7260   34.0120    9.2390 C   0  0  0  0  0  0  0  0  0  0  0  0
   27.9880   34.6970    8.1420 N   0  0  0  0  0  0  0  0  0  0  0  0
  1  2  1  0  0  0  0
  3  2  1  0  0  0  0
  4  5  1  0  0  0  0
  4  3  1  0  0  0  0
  6  5  1  0  0  0  0
M  END
>  <EGIN_R>
ES LYS A 135

>  <REMARK>
  4 active torsions:
  status: ('A' for Active; 'I' for Inactive)
    5  A    between atoms: CA   and  CB  
    6  A    between atoms: CB   and  CG  
    7  A    between atoms: CG   and  CD  
    8  A    between atoms: CD   and  CE  

$$$$
