ligand_72_pose_17_2HRL.pdbqt
 OpenBabel07062320523D

 49 49  0  0  1  0  0  0  0  0999 V2000
   33.0450   35.4570   19.2780 N   0  0  0  0  0  0  0  0  0  0  0  0
   34.3630   35.4760   19.8360 C   0  0  0  0  0  0  0  0  0  0  0  0
   34.7940   34.5140   20.5570 O   0  0  0  0  0  0  0  0  0  0  0  0
   32.7490   36.2580   18.6900 H   0  0  0  0  0  0  0  0  0  0  0  0
   32.1790   34.3250   19.5330 C   0  0  0  0  0  0  0  0  0  0  0  0
   31.4590   33.8600   18.3280 C   0  0  2  0  0  0  0  0  0  0  0  0
   31.3290   34.7920   17.1830 C   0  0  1  0  0  0  0  0  0  0  0  0
   31.2040   34.0510   15.8750 C   0  0  2  0  0  0  0  0  0  0  0  0
   32.0980   35.5760   14.3030 C   0  0  2  0  0  0  0  0  0  0  0  0
   30.6890   35.7610   13.7090 C   0  0  0  0  0  0  0  0  0  0  0  0
   32.2170   34.4280   15.0180 O   0  0  0  0  0  0  0  0  0  0  0  0
   30.0600   34.4090   13.7540 C   0  0  1  0  0  0  0  0  0  0  0  0
   29.8380   34.0860   15.2600 C   0  0  1  0  0  0  0  0  0  0  0  0
   32.4580   36.7400   14.9510 O   0  0  0  0  0  0  0  0  0  0  0  0
   31.7520   37.0020   15.5890 H   0  0  0  0  0  0  0  0  0  0  0  0
   33.0400   35.4220   13.1260 C   0  0  0  0  0  0  0  0  0  0  0  0
   32.9020   36.1240   12.0970 O   0  0  0  0  0  0  0  0  0  0  0  0
   34.0490   34.4890   13.2240 O   0  0  0  0  0  0  0  0  0  0  0  0
   34.0700   33.6660   12.6320 H   0  0  0  0  0  0  0  0  0  0  0  0
   28.8600   34.3280   13.0750 O   0  0  0  0  0  0  0  0  0  0  0  0
   29.0320   33.8060   12.2480 H   0  0  0  0  0  0  0  0  0  0  0  0
   29.2040   32.7600   15.1910 N   0  0  0  0  0  0  0  0  0  0  0  0
   28.2090   32.3360   16.0790 C   0  0  0  0  0  0  0  0  0  0  0  0
   29.5300   32.1250   14.4330 H   0  0  0  0  0  0  0  0  0  0  0  0
   27.5590   31.0010   16.0310 C   0  0  0  0  0  0  0  0  0  0  0  0
   27.8320   33.1310   16.9840 O   0  0  0  0  0  0  0  0  0  0  0  0
   30.5680   35.9040   17.3290 O   0  0  0  0  0  0  0  0  0  0  0  0
   29.9640   35.8990   18.1170 H   0  0  0  0  0  0  0  0  0  0  0  0
   30.1640   33.4300   18.6950 O   0  0  0  0  0  0  0  0  0  0  0  0
   30.0680   33.5690   19.6640 H   0  0  0  0  0  0  0  0  0  0  0  0
   35.1610   36.5600   19.5780 O   0  0  0  0  0  0  0  0  0  0  0  0
   35.1310   37.2710   18.3750 C   0  0  0  0  0  0  0  0  0  0  0  0
   35.6670   36.4590   17.2530 C   0  0  0  0  0  0  0  0  0  0  0  0
   36.9980   36.1860   17.0570 C   0  0  0  0  0  0  0  0  0  0  0  0
   35.0080   35.8630   16.2590 N   0  0  0  0  0  0  0  0  0  0  0  0
   37.1180   35.4340   15.9580 N   0  0  0  0  0  0  0  0  0  0  0  0
   35.8810   35.2510   15.4910 N   0  0  0  0  0  0  0  0  0  0  0  0
   38.3550   34.9360   15.4140 C   0  0  0  0  0  0  0  0  0  0  0  0
   39.0510   34.0260   16.4040 C   0  0  0  0  0  0  0  0  0  0  0  0
   39.2480   36.1230   15.0730 C   0  0  0  0  0  0  0  0  0  0  0  0
   38.0860   34.2080   14.1220 C   0  0  0  0  0  0  0  0  0  0  0  0
   37.8780   32.8490   14.3730 O   0  0  0  0  0  0  0  0  0  0  0  0
   38.5630   32.5410   15.0200 H   0  0  0  0  0  0  0  0  0  0  0  0
   29.8670   25.5550   16.9770 C   0  0  0  0  0  0  0  0  0  0  0  0
   28.3450   25.7220   17.0260 C   0  0  0  0  0  0  0  0  0  0  0  0
   27.6010   24.4040   16.8750 C   0  0  0  0  0  0  0  0  0  0  0  0
   26.1630   24.5140   17.3000 C   0  0  0  0  0  0  0  0  0  0  0  0
   25.6060   23.1210   17.5750 C   0  0  0  0  0  0  0  0  0  0  0  0
   24.9060   23.0900   18.8810 N   0  0  0  0  0  0  0  0  0  0  0  0
  1  5  1  0  0  0  0
  1  2  1  0  0  0  0
  2  3  2  0  0  0  0
  4  1  1  0  0  0  0
  6 29  1  0  0  0  0
  6  5  1  1  0  0  0
  7 27  1  1  0  0  0
  7  6  1  0  0  0  0
  8  7  1  1  0  0  0
  9 16  1  6  0  0  0
  9 14  1  0  0  0  0
  9 11  1  0  0  0  0
 10 12  1  0  0  0  0
 10  9  1  0  0  0  0
 11  8  1  0  0  0  0
 12 20  1  6  0  0  0
 12 13  1  0  0  0  0
 13 22  1  6  0  0  0
 13  8  1  0  0  0  0
 14 15  1  0  0  0  0
 16 18  1  0  0  0  0
 17 16  2  0  0  0  0
 19 18  1  0  0  0  0
 21 20  1  0  0  0  0
 22 23  1  0  0  0  0
 23 26  2  0  0  0  0
 24 22  1  0  0  0  0
 25 23  1  0  0  0  0
 27 28  1  0  0  0  0
 29 30  1  0  0  0  0
 31  2  1  0  0  0  0
 32 31  1  0  0  0  0
 33 32  1  0  0  0  0
 34 33  2  0  0  0  0
 35 33  1  0  0  0  0
 36 34  1  0  0  0  0
 37 36  1  0  0  0  0
 37 35  2  0  0  0  0
 38 36  1  0  0  0  0
 38 39  1  0  0  0  0
 40 38  1  0  0  0  0
 41 42  1  0  0  0  0
 41 38  1  0  0  0  0
 42 43  1  0  0  0  0
 44 45  1  0  0  0  0
 46 45  1  0  0  0  0
 46 47  1  0  0  0  0
 47 48  1  0  0  0  0
 48 49  1  0  0  0  0
M  END
>  <REMARK>
 VINA RESULT:    -4.186      5.784     10.616
 INTER + INTRA:         -13.757
 INTER:                  -7.613
 INTRA:                  -6.145
 UNBOUND:                -6.145
 SMILES CC(=O)N[C@@H]1[C@@H](O)C[C@](O)(C(=O)O)O[C@H]1C(O)[C@H](O)CNC(=O)OCc1cn(C(C)(C)CO)nn1
 SMILES IDX 21 1 22 2 23 3 20 5 18 6 16 7 15 8 9 9 8 10 14 11 6 12 5 13
 SMILES IDX 10 14 11 16 12 17 13 18 7 20 4 22 2 23 1 25 3 26 17 27 19 29
 SMILES IDX 24 31 25 32 26 33 27 34 35 35 28 36 34 37 29 38 30 39 31 40
 SMILES IDX 32 41 33 42
 H PARENT 21 4 10 15 13 19 7 21 4 24 17 28 19 30 33 43
 Flexibility Score: inf
  4 active torsions:
  status: ('A' for Active; 'I' for Inactive)
    1  A    between atoms: CA   and  CB  
    2  A    between atoms: CB   and  CG  
    3  A    between atoms: CG   and  CD  
    4  A    between atoms: CD   and  CE  

>  <TORSDO>
F 17

>  <BEGIN_>
RES LYS A 131

$$$$
ligand_72_pose_17_2HRL.pdbqt
 OpenBabel07062320523D

  6  5  0  0  0  0  0  0  0  0999 V2000
   33.1930   34.6630    9.2900 C   0  0  0  0  0  0  0  0  0  0  0  0
   32.0600   35.3600   10.0340 C   0  0  0  0  0  0  0  0  0  0  0  0
   30.8860   35.7060    9.1550 C   0  0  0  0  0  0  0  0  0  0  0  0
   30.3720   34.4700    8.4340 C   0  0  0  0  0  0  0  0  0  0  0  0
   28.9780   34.1150    8.9130 C   0  0  0  0  0  0  0  0  0  0  0  0
   28.1690   35.3390    9.1650 N   0  0  0  0  0  0  0  0  0  0  0  0
  1  2  1  0  0  0  0
  3  2  1  0  0  0  0
  4  5  1  0  0  0  0
  4  3  1  0  0  0  0
  5  6  1  0  0  0  0
M  END
>  <EGIN_R>
ES LYS A 135

>  <REMARK>
  4 active torsions:
  status: ('A' for Active; 'I' for Inactive)
    5  A    between atoms: CA   and  CB  
    6  A    between atoms: CB   and  CG  
    7  A    between atoms: CG   and  CD  
    8  A    between atoms: CD   and  CE  

$$$$
