ligand_34_pose_17_2HRL.pdbqt
 OpenBabel07062320523D

 69 73  0  0  1  0  0  0  0  0999 V2000
   31.1000   38.2800   10.1910 N   0  0  0  0  0  0  0  0  0  0  0  0
   31.6510   38.9940    9.0720 C   0  0  0  0  0  0  0  0  0  0  0  0
   32.5510   39.8400    9.3260 O   0  0  0  0  0  0  0  0  0  0  0  0
   30.3560   37.5740   10.0400 H   0  0  0  0  0  0  0  0  0  0  0  0
   31.5620   38.5270   11.5350 C   0  0  0  0  0  0  0  0  0  0  0  0
   31.6060   37.2370   12.2840 C   0  0  2  0  0  0  0  0  0  0  0  0
   31.4870   37.4470   13.7930 C   0  0  2  0  0  0  0  0  0  0  0  0
   30.3960   36.5570   14.3680 C   0  0  2  0  0  0  0  0  0  0  0  0
   30.7570   34.2570   14.4330 C   0  0  2  0  0  0  0  0  0  0  0  0
   29.2720   33.9640   14.4540 C   0  0  0  0  0  0  0  0  0  0  0  0
   31.0000   35.4930   14.9750 O   0  0  0  0  0  0  0  0  0  0  0  0
   28.5110   35.0280   13.7520 C   0  0  1  0  0  0  0  0  0  0  0  0
   29.3490   36.2210   13.3640 C   0  0  1  0  0  0  0  0  0  0  0  0
   31.1950   34.1020   13.1430 O   0  0  0  0  0  0  0  0  0  0  0  0
   31.8090   33.3580   13.0070 H   0  0  0  0  0  0  0  0  0  0  0  0
   31.4060   33.2460   15.3020 C   0  0  0  0  0  0  0  0  0  0  0  0
   31.9180   33.5940   16.3950 O   0  0  0  0  0  0  0  0  0  0  0  0
   31.4830   31.9030   14.9710 O   0  0  0  0  0  0  0  0  0  0  0  0
   30.7080   31.2520   15.1710 H   0  0  0  0  0  0  0  0  0  0  0  0
   27.8860   34.5520   12.6020 O   0  0  0  0  0  0  0  0  0  0  0  0
   28.3160   33.7550   12.2210 H   0  0  0  0  0  0  0  0  0  0  0  0
   28.4080   37.3420   13.2210 N   0  0  0  0  0  0  0  0  0  0  0  0
   27.8800   37.7610   11.9870 C   0  0  0  0  0  0  0  0  0  0  0  0
   28.1290   37.8370   14.0990 H   0  0  0  0  0  0  0  0  0  0  0  0
   26.9370   38.9000   11.9240 C   0  0  0  0  0  0  0  0  0  0  0  0
   28.2570   37.1160   10.9540 O   0  0  0  0  0  0  0  0  0  0  0  0
   31.1710   38.8000   13.9650 O   0  0  0  0  0  0  0  0  0  0  0  0
   31.8780   39.1800   14.5520 H   0  0  0  0  0  0  0  0  0  0  0  0
   32.7440   36.4950   11.9780 O   0  0  0  0  0  0  0  0  0  0  0  0
   32.9750   35.8480   12.6860 H   0  0  0  0  0  0  0  0  0  0  0  0
   31.2480   38.7950    7.7850 O   0  0  0  0  0  0  0  0  0  0  0  0
   30.4360   39.7270    7.1110 C   0  0  0  0  0  0  0  0  0  0  0  0
   29.0790   39.1630    6.9670 C   0  0  0  0  0  0  0  0  0  0  0  0
   28.2420   38.7130    7.9910 C   0  0  0  0  0  0  0  0  0  0  0  0
   28.3900   38.9640    5.8360 N   0  0  0  0  0  0  0  0  0  0  0  0
   27.0950   38.2670    7.4480 N   0  0  0  0  0  0  0  0  0  0  0  0
   27.2150   38.4320    6.1470 N   0  0  0  0  0  0  0  0  0  0  0  0
   26.0210   37.7330    8.2040 C   0  0  0  0  0  0  0  0  0  0  0  0
   25.1070   38.4720    8.8950 C   0  0  0  0  0  0  0  0  0  0  0  0
   25.8860   36.3430    8.2510 C   0  0  0  0  0  0  0  0  0  0  0  0
   24.0690   37.9040    9.6270 C   0  0  0  0  0  0  0  0  0  0  0  0
   24.8740   35.7600    8.9630 C   0  0  0  0  0  0  0  0  0  0  0  0
   23.9570   36.5480    9.6570 C   0  0  0  0  0  0  0  0  0  0  0  0
   23.1080   38.7290   10.3540 C   0  0  0  0  0  0  0  0  0  0  0  0
   22.0640   39.1800    9.7850 O   0  0  0  0  0  0  0  0  0  0  0  0
   23.3140   39.0350   11.6720 O   0  0  0  0  0  0  0  0  0  0  0  0
   22.9190   35.8340   10.3840 C   0  0  0  0  0  0  0  0  0  0  0  0
   23.0420   35.3920   11.6840 C   0  0  0  0  0  0  0  0  0  0  0  0
   21.7220   35.5770    9.7370 C   0  0  0  0  0  0  0  0  0  0  0  0
   24.2210   35.6290   12.3630 C   0  0  0  0  0  0  0  0  0  0  0  0
   22.0110   34.7170   12.3260 C   0  0  0  0  0  0  0  0  0  0  0  0
   20.6730   34.8670   10.4520 C   0  0  0  0  0  0  0  0  0  0  0  0
   21.4970   35.9750    8.4380 C   0  0  0  0  0  0  0  0  0  0  0  0
   24.3920   35.2050   13.6720 C   0  0  0  0  0  0  0  0  0  0  0  0
   22.1500   34.2830   13.6240 C   0  0  0  0  0  0  0  0  0  0  0  0
   20.8800   34.4760   11.7080 O   0  0  0  0  0  0  0  0  0  0  0  0
   19.4900   34.6100    9.8240 C   0  0  0  0  0  0  0  0  0  0  0  0
   20.2950   35.6940    7.8530 C   0  0  0  0  0  0  0  0  0  0  0  0
   23.3510   34.5360   14.2830 C   0  0  0  0  0  0  0  0  0  0  0  0
   19.2870   35.0180    8.5230 C   0  0  0  0  0  0  0  0  0  0  0  0
   18.1970   34.7830    7.9390 O   0  0  0  0  0  0  0  0  0  0  0  0
   23.5130   34.1070   15.5900 O   0  0  0  0  0  0  0  0  0  0  0  0
   23.6050   34.7210   16.3780 H   0  0  0  0  0  0  0  0  0  0  0  0
   29.8670   25.5550   16.9770 C   0  0  0  0  0  0  0  0  0  0  0  0
   28.3450   25.7220   17.0260 C   0  0  0  0  0  0  0  0  0  0  0  0
   27.7680   25.4750   18.4110 C   0  0  0  0  0  0  0  0  0  0  0  0
   26.2700   25.3430   18.3860 C   0  0  0  0  0  0  0  0  0  0  0  0
   25.8800   23.9080   18.7240 C   0  0  0  0  0  0  0  0  0  0  0  0
   26.0000   23.0420   17.5280 N   0  0  0  0  0  0  0  0  0  0  0  0
  1  5  1  0  0  0  0
  2  3  2  0  0  0  0
  2  1  1  0  0  0  0
  4  1  1  0  0  0  0
  6  5  1  6  0  0  0
  6  7  1  0  0  0  0
  7 27  1  6  0  0  0
  8  7  1  6  0  0  0
  8 11  1  0  0  0  0
  9 14  1  6  0  0  0
  9 10  1  0  0  0  0
  9 11  1  0  0  0  0
  9 16  1  0  0  0  0
 12 20  1  6  0  0  0
 12 10  1  0  0  0  0
 13 22  1  1  0  0  0
 13 12  1  0  0  0  0
 13  8  1  0  0  0  0
 15 14  1  0  0  0  0
 16 17  2  0  0  0  0
 18 19  1  0  0  0  0
 18 16  1  0  0  0  0
 21 20  1  0  0  0  0
 22 24  1  0  0  0  0
 23 22  1  0  0  0  0
 25 23  1  0  0  0  0
 26 23  2  0  0  0  0
 27 28  1  0  0  0  0
 29  6  1  0  0  0  0
 29 30  1  0  0  0  0
 31  2  1  0  0  0  0
 32 31  1  0  0  0  0
 33 32  1  0  0  0  0
 33 34  2  0  0  0  0
 35 37  2  0  0  0  0
 35 33  1  0  0  0  0
 36 34  1  0  0  0  0
 36 38  1  0  0  0  0
 37 36  1  0  0  0  0
 38 40  2  0  0  0  0
 38 39  1  0  0  0  0
 39 41  2  0  0  0  0
 40 42  1  0  0  0  0
 41 43  1  0  0  0  0
 41 44  1  0  0  0  0
 42 43  2  0  0  0  0
 43 47  1  0  0  0  0
 44 46  1  0  0  0  0
 45 44  2  0  0  0  0
 47 48  1  0  0  0  0
 48 51  1  0  0  0  0
 48 50  2  0  0  0  0
 49 47  2  0  0  0  0
 49 52  1  0  0  0  0
 50 54  1  0  0  0  0
 51 55  2  0  0  0  0
 52 56  1  0  0  0  0
 53 49  1  0  0  0  0
 54 59  2  0  0  0  0
 55 59  1  0  0  0  0
 56 51  1  0  0  0  0
 57 52  2  0  0  0  0
 58 53  2  0  0  0  0
 58 60  1  0  0  0  0
 59 62  1  0  0  0  0
 60 57  1  0  0  0  0
 61 60  2  0  0  0  0
 62 63  1  0  0  0  0
 64 65  1  0  0  0  0
 65 66  1  0  0  0  0
 67 66  1  0  0  0  0
 67 68  1  0  0  0  0
 69 68  1  0  0  0  0
M  END
>  <REMARK>
 VINA RESULT:    -5.325      3.026      5.723
 INTER + INTRA:         -17.712
 INTER:                 -11.287
 INTRA:                  -6.425
 UNBOUND:                -7.717
 SMILES CC(=O)N[C@@H]1[C@@H](O)C[C@](O)(C(=O)O)O[C@H]1C(O)[C@H](O)CNC(=O)OCc1cn(-c2ccc(-c3c4ccc(=O)cc-4oc4cc(O)ccc34)c(C(=O)[O-])c2)nn1
 SMILES IDX 21 1 22 2 23 3 20 5 18 6 16 7 15 8 9 9 8 10 14 11 6 12 5 13
 SMILES IDX 10 14 11 16 12 17 13 18 7 20 4 22 2 23 1 25 3 26 17 27 19 29
 SMILES IDX 24 31 25 32 26 33 27 34 55 35 28 36 54 37 29 38 53 39 30 40
 SMILES IDX 49 41 31 42 32 43 50 44 51 45 52 46 33 47 48 48 34 49 47 50
 SMILES IDX 42 51 40 52 35 53 46 54 43 55 41 56 39 57 36 58 44 59 37 60
 SMILES IDX 38 61 45 62
 H PARENT 21 4 10 15 13 19 7 21 4 24 17 28 19 30 45 63
 Flexibility Score: inf
  4 active torsions:
  status: ('A' for Active; 'I' for Inactive)
    1  A    between atoms: CA   and  CB  
    2  A    between atoms: CB   and  CG  
    3  A    between atoms: CG   and  CD  
    4  A    between atoms: CD   and  CE  

>  <TORSDO>
F 18

>  <BEGIN_>
RES LYS A 131

$$$$
ligand_34_pose_17_2HRL.pdbqt
 OpenBabel07062320523D

  6  5  0  0  0  0  0  0  0  0999 V2000
   33.1930   34.6630    9.2900 C   0  0  0  0  0  0  0  0  0  0  0  0
   32.0600   35.3600   10.0340 C   0  0  0  0  0  0  0  0  0  0  0  0
   30.7060   34.7520    9.7750 C   0  0  0  0  0  0  0  0  0  0  0  0
   30.4950   34.5250    8.2860 C   0  0  0  0  0  0  0  0  0  0  0  0
   29.0760   34.8850    7.8880 C   0  0  0  0  0  0  0  0  0  0  0  0
   29.0350   35.4700    6.5190 N   0  0  0  0  0  0  0  0  0  0  0  0
  1  2  1  0  0  0  0
  3  2  1  0  0  0  0
  4  3  1  0  0  0  0
  5  4  1  0  0  0  0
  6  5  1  0  0  0  0
M  END
>  <EGIN_R>
ES LYS A 135

>  <REMARK>
  4 active torsions:
  status: ('A' for Active; 'I' for Inactive)
    5  A    between atoms: CA   and  CB  
    6  A    between atoms: CB   and  CG  
    7  A    between atoms: CG   and  CD  
    8  A    between atoms: CD   and  CE  

$$$$
