ligand_60_pose_14_2HRL.pdbqt
 OpenBabel07062320523D

 55 56  0  0  1  0  0  0  0  0999 V2000
   27.3630   26.5960   22.4300 N   0  0  0  0  0  0  0  0  0  0  0  0
   27.8100   26.9110   23.7210 C   0  0  0  0  0  0  0  0  0  0  0  0
   27.4390   27.9520   24.2870 O   0  0  0  0  0  0  0  0  0  0  0  0
   27.7130   25.6940   22.0050 H   0  0  0  0  0  0  0  0  0  0  0  0
   26.4780   27.4350   21.7030 C   0  0  0  0  0  0  0  0  0  0  0  0
   27.1980   28.4190   20.7890 C   0  0  2  0  0  0  0  0  0  0  0  0
   27.5300   27.7150   19.5040 C   0  0  1  0  0  0  0  0  0  0  0  0
   27.4790   28.5720   18.2970 C   0  0  2  0  0  0  0  0  0  0  0  0
   28.2470   30.6460   17.5650 C   0  0  2  0  0  0  0  0  0  0  0  0
   27.7890   30.0360   16.2630 C   0  0  0  0  0  0  0  0  0  0  0  0
   28.0520   29.8250   18.6400 O   0  0  0  0  0  0  0  0  0  0  0  0
   26.4060   29.4660   16.3300 C   0  0  1  0  0  0  0  0  0  0  0  0
   26.1590   28.8880   17.7010 C   0  0  1  0  0  0  0  0  0  0  0  0
   27.6640   31.9210   17.7590 O   0  0  0  0  0  0  0  0  0  0  0  0
   28.2410   32.4870   18.3320 H   0  0  0  0  0  0  0  0  0  0  0  0
   29.7070   30.8960   17.4370 C   0  0  0  0  0  0  0  0  0  0  0  0
   30.3350   31.2710   18.4590 O   0  0  0  0  0  0  0  0  0  0  0  0
   30.4200   30.7410   16.2620 O   0  0  0  0  0  0  0  0  0  0  0  0
   31.0170   29.9310   16.1170 H   0  0  0  0  0  0  0  0  0  0  0  0
   25.5040   30.4680   15.9940 O   0  0  0  0  0  0  0  0  0  0  0  0
   25.7090   31.2390   16.5810 H   0  0  0  0  0  0  0  0  0  0  0  0
   25.1520   27.8950   17.7310 N   0  0  0  0  0  0  0  0  0  0  0  0
   23.7960   28.1930   17.9910 C   0  0  0  0  0  0  0  0  0  0  0  0
   25.3890   26.9020   17.5370 H   0  0  0  0  0  0  0  0  0  0  0  0
   22.7370   27.1250   18.0200 C   0  0  0  0  0  0  0  0  0  0  0  0
   23.4920   29.3820   18.2020 O   0  0  0  0  0  0  0  0  0  0  0  0
   28.5250   26.7770   19.5750 O   0  0  0  0  0  0  0  0  0  0  0  0
   28.1370   25.9140   19.8410 H   0  0  0  0  0  0  0  0  0  0  0  0
   28.2610   28.9560   21.4650 O   0  0  0  0  0  0  0  0  0  0  0  0
   28.3470   28.5370   22.3650 H   0  0  0  0  0  0  0  0  0  0  0  0
   28.6880   26.0830   24.4370 O   0  0  0  0  0  0  0  0  0  0  0  0
   29.8870   25.6500   23.8760 C   0  0  0  0  0  0  0  0  0  0  0  0
   30.5010   26.6790   23.0080 C   0  0  0  0  0  0  0  0  0  0  0  0
   31.2170   27.8040   23.3370 C   0  0  0  0  0  0  0  0  0  0  0  0
   30.4500   26.6660   21.6510 N   0  0  0  0  0  0  0  0  0  0  0  0
   31.5830   28.4460   22.2130 N   0  0  0  0  0  0  0  0  0  0  0  0
   31.1020   27.7310   21.2160 N   0  0  0  0  0  0  0  0  0  0  0  0
   32.3330   29.6500   22.0780 C   0  0  0  0  0  0  0  0  0  0  0  0
   31.7220   30.8620   21.8410 C   0  0  0  0  0  0  0  0  0  0  0  0
   33.7120   29.6500   22.1790 C   0  0  0  0  0  0  0  0  0  0  0  0
   32.4320   32.0340   21.7080 C   0  0  0  0  0  0  0  0  0  0  0  0
   34.4270   30.8220   22.0460 C   0  0  0  0  0  0  0  0  0  0  0  0
   33.8270   32.0410   21.8090 C   0  0  0  0  0  0  0  0  0  0  0  0
   34.7250   33.5310   21.6370 S   0  0  0  0  0  0  0  0  0  0  0  0
   36.0600   33.1810   21.0420 O   0  0  0  0  0  0  0  0  0  0  0  0
   34.0170   34.4050   20.6270 O   0  0  0  0  0  0  0  0  0  0  0  0
   34.9300   34.3590   23.1220 N   0  0  0  0  0  0  0  0  0  0  0  0
   35.7450   34.9810   23.1670 H   0  0  0  0  0  0  0  0  0  0  0  0
   34.0520   34.8260   23.4400 H   0  0  0  0  0  0  0  0  0  0  0  0
   29.8670   25.5550   16.9770 C   0  0  0  0  0  0  0  0  0  0  0  0
   28.3450   25.7220   17.0260 C   0  0  0  0  0  0  0  0  0  0  0  0
   27.5990   24.4290   16.7360 C   0  0  0  0  0  0  0  0  0  0  0  0
   27.0020   23.8280   17.9780 C   0  0  0  0  0  0  0  0  0  0  0  0
   25.5680   24.3230   18.1440 C   0  0  0  0  0  0  0  0  0  0  0  0
   25.3170   24.7240   19.5480 N   0  0  0  0  0  0  0  0  0  0  0  0
  1  2  1  0  0  0  0
  2  3  2  0  0  0  0
  2 31  1  0  0  0  0
  4  1  1  0  0  0  0
  5  1  1  0  0  0  0
  6 29  1  0  0  0  0
  6  5  1  1  0  0  0
  7 27  1  1  0  0  0
  7  6  1  0  0  0  0
  8 11  1  0  0  0  0
  8  7  1  1  0  0  0
  9 16  1  6  0  0  0
  9 14  1  0  0  0  0
  9 11  1  0  0  0  0
 10 12  1  0  0  0  0
 10  9  1  0  0  0  0
 12 20  1  1  0  0  0
 12 13  1  0  0  0  0
 13 22  1  6  0  0  0
 13  8  1  0  0  0  0
 14 15  1  0  0  0  0
 16 17  2  0  0  0  0
 18 16  1  0  0  0  0
 19 18  1  0  0  0  0
 20 21  1  0  0  0  0
 22 23  1  0  0  0  0
 23 25  1  0  0  0  0
 23 26  2  0  0  0  0
 24 22  1  0  0  0  0
 27 28  1  0  0  0  0
 29 30  1  0  0  0  0
 32 31  1  0  0  0  0
 33 34  2  0  0  0  0
 33 32  1  0  0  0  0
 35 33  1  0  0  0  0
 36 34  1  0  0  0  0
 37 35  2  0  0  0  0
 37 36  1  0  0  0  0
 38 40  1  0  0  0  0
 38 36  1  0  0  0  0
 39 38  2  0  0  0  0
 41 43  2  0  0  0  0
 41 39  1  0  0  0  0
 42 40  2  0  0  0  0
 43 42  1  0  0  0  0
 44 43  1  0  0  0  0
 44 47  1  0  0  0  0
 45 44  2  0  0  0  0
 46 44  2  0  0  0  0
 47 48  1  0  0  0  0
 47 49  1  0  0  0  0
 50 51  1  0  0  0  0
 52 51  1  0  0  0  0
 52 53  1  0  0  0  0
 53 54  1  0  0  0  0
 54 55  1  0  0  0  0
M  END
>  <REMARK>
 VINA RESULT:    -4.765      3.543      6.955
 INTER + INTRA:         -14.628
 INTER:                  -8.154
 INTRA:                  -6.474
 UNBOUND:                -5.964
 SMILES CC(=O)N[C@@H]1[C@@H](O)C[C@](O)(C(=O)O)O[C@H]1C(O)[C@H](O)CNC(=O)OCc1cn(-c2ccc(S(N)(=O)=O)cc2)nn1
 SMILES IDX 21 1 22 2 23 3 20 5 18 6 16 7 15 8 9 9 8 10 14 11 6 12 5 13
 SMILES IDX 10 14 11 16 12 17 13 18 7 20 4 22 2 23 1 25 3 26 17 27 19 29
 SMILES IDX 24 31 25 32 26 33 27 34 40 35 28 36 39 37 29 38 30 39 38 40
 SMILES IDX 31 41 37 42 32 43 33 44 35 45 36 46 34 47
 H PARENT 21 4 10 15 13 19 7 21 4 24 17 28 19 30 34 48 34 49
 Flexibility Score: inf
  4 active torsions:
  status: ('A' for Active; 'I' for Inactive)
    1  A    between atoms: CA   and  CB  
    2  A    between atoms: CB   and  CG  
    3  A    between atoms: CG   and  CD  
    4  A    between atoms: CD   and  CE  

>  <TORSDO>
F 17

>  <BEGIN_>
RES LYS A 131

$$$$
ligand_60_pose_14_2HRL.pdbqt
 OpenBabel07062320523D

  6  5  0  0  0  0  0  0  0  0999 V2000
   33.1930   34.6630    9.2900 C   0  0  0  0  0  0  0  0  0  0  0  0
   32.0600   35.3600   10.0340 C   0  0  0  0  0  0  0  0  0  0  0  0
   30.7040   34.7610    9.7650 C   0  0  0  0  0  0  0  0  0  0  0  0
   30.4590   34.6380    8.2690 C   0  0  0  0  0  0  0  0  0  0  0  0
   29.0010   34.9000    7.9440 C   0  0  0  0  0  0  0  0  0  0  0  0
   28.8550   35.5310    6.6030 N   0  0  0  0  0  0  0  0  0  0  0  0
  1  2  1  0  0  0  0
  3  2  1  0  0  0  0
  4  3  1  0  0  0  0
  5  4  1  0  0  0  0
  6  5  1  0  0  0  0
M  END
>  <EGIN_R>
ES LYS A 135

>  <REMARK>
  4 active torsions:
  status: ('A' for Active; 'I' for Inactive)
    5  A    between atoms: CA   and  CB  
    6  A    between atoms: CB   and  CG  
    7  A    between atoms: CG   and  CD  
    8  A    between atoms: CD   and  CE  

$$$$
