ligand_39_pose_17_2HRL.pdbqt
 OpenBabel07062320523D

 51 52  0  0  1  0  0  0  0  0999 V2000
   29.6610   30.0420   18.7510 N   0  0  0  0  0  0  0  0  0  0  0  0
   30.0430   31.3740   18.5550 C   0  0  0  0  0  0  0  0  0  0  0  0
   29.7370   32.2360   19.4240 O   0  0  0  0  0  0  0  0  0  0  0  0
   29.9380   29.3500   18.0010 H   0  0  0  0  0  0  0  0  0  0  0  0
   28.9220   29.5520   19.8940 C   0  0  0  0  0  0  0  0  0  0  0  0
   27.7360   28.7410   19.4160 C   0  0  2  0  0  0  0  0  0  0  0  0
   27.8630   27.2880   19.8210 C   0  0  2  0  0  0  0  0  0  0  0  0
   26.8520   26.9020   20.8810 C   0  0  2  0  0  0  0  0  0  0  0  0
   24.5670   27.0880   21.3120 C   0  0  2  0  0  0  0  0  0  0  0  0
   24.8020   27.6920   22.6440 C   0  0  0  0  0  0  0  0  0  0  0  0
   25.6350   27.3560   20.4710 O   0  0  0  0  0  0  0  0  0  0  0  0
   26.1810   28.1120   22.9740 C   0  0  1  0  0  0  0  0  0  0  0  0
   27.2720   27.3860   22.2400 C   0  0  1  0  0  0  0  0  0  0  0  0
   23.4590   27.7390   20.7100 O   0  0  0  0  0  0  0  0  0  0  0  0
   23.5960   28.7230   20.6810 H   0  0  0  0  0  0  0  0  0  0  0  0
   24.2410   25.6640   21.4080 C   0  0  0  0  0  0  0  0  0  0  0  0
   24.3330   25.0040   22.4800 O   0  0  0  0  0  0  0  0  0  0  0  0
   23.8100   24.9880   20.2760 O   0  0  0  0  0  0  0  0  0  0  0  0
   23.8620   23.9800   20.1820 H   0  0  0  0  0  0  0  0  0  0  0  0
   26.3190   29.5040   22.8230 O   0  0  0  0  0  0  0  0  0  0  0  0
   26.9400   29.7760   23.5710 H   0  0  0  0  0  0  0  0  0  0  0  0
   27.8450   26.3330   23.0490 N   0  0  0  0  0  0  0  0  0  0  0  0
   29.1790   26.3740   23.5260 C   0  0  0  0  0  0  0  0  0  0  0  0
   27.2660   25.5070   23.2980 H   0  0  0  0  0  0  0  0  0  0  0  0
   29.7850   25.2970   24.3600 C   0  0  0  0  0  0  0  0  0  0  0  0
   29.8700   27.4000   23.2070 O   0  0  0  0  0  0  0  0  0  0  0  0
   29.1690   27.0220   20.2200 O   0  0  0  0  0  0  0  0  0  0  0  0
   29.5840   27.8800   20.5470 H   0  0  0  0  0  0  0  0  0  0  0  0
   27.7510   28.8580   18.0050 O   0  0  0  0  0  0  0  0  0  0  0  0
   28.6530   28.8990   17.6510 H   0  0  0  0  0  0  0  0  0  0  0  0
   30.7510   31.8340   17.4540 O   0  0  0  0  0  0  0  0  0  0  0  0
   30.0640   32.3960   16.3490 C   0  0  0  0  0  0  0  0  0  0  0  0
   28.7640   31.7310   16.1230 C   0  0  0  0  0  0  0  0  0  0  0  0
   27.4900   32.2900   16.3030 C   0  0  0  0  0  0  0  0  0  0  0  0
   28.5090   30.4840   15.7120 N   0  0  0  0  0  0  0  0  0  0  0  0
   26.5440   31.4140   16.0130 N   0  0  0  0  0  0  0  0  0  0  0  0
   27.2090   30.2920   15.6460 N   0  0  0  0  0  0  0  0  0  0  0  0
   25.1010   31.4410   16.0310 C   0  0  0  0  0  0  0  0  0  0  0  0
   24.4370   30.6060   15.0390 C   0  0  0  0  0  0  0  0  0  0  0  0
   24.4160   30.9700   13.6900 C   0  0  0  0  0  0  0  0  0  0  0  0
   23.8370   29.4240   15.3660 C   0  0  0  0  0  0  0  0  0  0  0  0
   23.8170   30.1570   12.7680 C   0  0  0  0  0  0  0  0  0  0  0  0
   23.2320   28.6060   14.4300 C   0  0  0  0  0  0  0  0  0  0  0  0
   23.7490   28.8260   17.1980 Br  0  0  0  0  0  0  0  0  0  0  0  0
   23.2170   28.9700   13.1070 C   0  0  0  0  0  0  0  0  0  0  0  0
   29.8670   25.5550   16.9770 C   0  0  0  0  0  0  0  0  0  0  0  0
   28.3450   25.7220   17.0260 C   0  0  0  0  0  0  0  0  0  0  0  0
   27.6020   24.3970   16.9470 C   0  0  0  0  0  0  0  0  0  0  0  0
   26.4910   24.3090   17.9560 C   0  0  0  0  0  0  0  0  0  0  0  0
   25.2610   23.6850   17.3060 C   0  0  0  0  0  0  0  0  0  0  0  0
   24.3190   24.7390   16.8590 N   0  0  0  0  0  0  0  0  0  0  0  0
  1  5  1  0  0  0  0
  2  1  1  0  0  0  0
  2  3  2  0  0  0  0
  4  1  1  0  0  0  0
  6  7  1  0  0  0  0
  6  5  1  1  0  0  0
  7 27  1  1  0  0  0
  8  7  1  6  0  0  0
  8 13  1  0  0  0  0
  9 14  1  6  0  0  0
  9 16  1  0  0  0  0
  9 10  1  0  0  0  0
 10 12  1  0  0  0  0
 11  8  1  0  0  0  0
 11  9  1  0  0  0  0
 12 20  1  6  0  0  0
 13 12  1  0  0  0  0
 13 22  1  1  0  0  0
 15 14  1  0  0  0  0
 16 17  2  0  0  0  0
 18 16  1  0  0  0  0
 19 18  1  0  0  0  0
 20 21  1  0  0  0  0
 22 24  1  0  0  0  0
 22 23  1  0  0  0  0
 23 25  1  0  0  0  0
 26 23  2  0  0  0  0
 27 28  1  0  0  0  0
 29  6  1  0  0  0  0
 30 29  1  0  0  0  0
 31  2  1  0  0  0  0
 32 31  1  0  0  0  0
 33 34  2  0  0  0  0
 33 32  1  0  0  0  0
 35 33  1  0  0  0  0
 36 38  1  0  0  0  0
 36 34  1  0  0  0  0
 37 35  2  0  0  0  0
 37 36  1  0  0  0  0
 39 41  1  0  0  0  0
 39 38  1  0  0  0  0
 40 39  2  0  0  0  0
 41 44  1  0  0  0  0
 42 45  2  0  0  0  0
 42 40  1  0  0  0  0
 43 41  2  0  0  0  0
 45 43  1  0  0  0  0
 46 47  1  0  0  0  0
 48 47  1  0  0  0  0
 48 49  1  0  0  0  0
 50 49  1  0  0  0  0
 51 50  1  0  0  0  0
M  END
>  <REMARK>
 VINA RESULT:    -3.778      2.693      5.189
 INTER + INTRA:         -14.186
 INTER:                  -8.240
 INTRA:                  -5.946
 UNBOUND:                -7.426
 SMILES CC(=O)N[C@@H]1[C@@H](O)C[C@](O)(C(=O)O)O[C@H]1C(O)[C@H](O)CNC(=O)OCc1cn(Cc2ccccc2Br)nn1
 SMILES IDX 21 1 22 2 23 3 20 5 18 6 16 7 15 8 9 9 8 10 14 11 6 12 5 13
 SMILES IDX 10 14 11 16 12 17 13 18 7 20 4 22 2 23 1 25 3 26 17 27 19 29
 SMILES IDX 24 31 25 32 26 33 27 34 38 35 28 36 37 37 29 38 30 39 31 40
 SMILES IDX 35 41 32 42 34 43 36 44 33 45
 H PARENT 21 4 10 15 13 19 7 21 4 24 17 28 19 30
 Flexibility Score: inf
  4 active torsions:
  status: ('A' for Active; 'I' for Inactive)
    1  A    between atoms: CA   and  CB  
    2  A    between atoms: CB   and  CG  
    3  A    between atoms: CG   and  CD  
    4  A    between atoms: CD   and  CE  

>  <TORSDO>
F 16

>  <BEGIN_>
RES LYS A 131

$$$$
ligand_39_pose_17_2HRL.pdbqt
 OpenBabel07062320523D

  6  5  0  0  0  0  0  0  0  0999 V2000
   33.1930   34.6630    9.2900 C   0  0  0  0  0  0  0  0  0  0  0  0
   32.0600   35.3600   10.0340 C   0  0  0  0  0  0  0  0  0  0  0  0
   30.7080   34.7410    9.7900 C   0  0  0  0  0  0  0  0  0  0  0  0
   30.4130   34.6670    8.3000 C   0  0  0  0  0  0  0  0  0  0  0  0
   29.1100   35.3740    7.9790 C   0  0  0  0  0  0  0  0  0  0  0  0
   28.9230   35.5130    6.5080 N   0  0  0  0  0  0  0  0  0  0  0  0
  1  2  1  0  0  0  0
  3  2  1  0  0  0  0
  4  3  1  0  0  0  0
  5  4  1  0  0  0  0
  6  5  1  0  0  0  0
M  END
>  <EGIN_R>
ES LYS A 135

>  <REMARK>
  4 active torsions:
  status: ('A' for Active; 'I' for Inactive)
    5  A    between atoms: CA   and  CB  
    6  A    between atoms: CB   and  CG  
    7  A    between atoms: CG   and  CD  
    8  A    between atoms: CD   and  CE  

$$$$
