ligand_30_pose_3_2HRL.pdbqt
 OpenBabel07062320523D

 57 57  0  0  1  0  0  0  0  0999 V2000
   28.3050   30.7660   15.7230 C   0  0  0  0  0  0  0  0  0  0  0  0
   28.0030   29.9350   16.8560 N   0  0  0  0  0  0  0  0  0  0  0  0
   27.2690   28.3800   18.2190 C   0  0  0  0  0  0  0  0  0  0  0  0
   27.2550   28.7970   16.9150 C   0  0  0  0  0  0  0  0  0  0  0  0
   28.0170   29.2630   18.9170 N   0  0  0  0  0  0  0  0  0  0  0  0
   28.4370   30.1700   18.0780 N   0  0  0  0  0  0  0  0  0  0  0  0
   26.5800   27.1790   18.7360 C   0  0  0  0  0  0  0  0  0  0  0  0
   25.6750   27.5260   19.7610 O   0  0  0  0  0  0  0  0  0  0  0  0
   26.1360   27.9200   21.0100 C   0  0  0  0  0  0  0  0  0  0  0  0
   26.0200   29.2630   21.4580 N   0  0  0  0  0  0  0  0  0  0  0  0
   25.5820   29.9860   20.8480 H   0  0  0  0  0  0  0  0  0  0  0  0
   26.6750   27.0350   21.7600 O   0  0  0  0  0  0  0  0  0  0  0  0
   26.5070   29.6260   22.7510 C   0  0  0  0  0  0  0  0  0  0  0  0
   27.9560   30.0610   22.7280 C   0  0  2  0  0  0  0  0  0  0  0  0
   28.7630   29.2090   23.6600 C   0  0  2  0  0  0  0  0  0  0  0  0
   30.0080   28.7100   22.9570 C   0  0  2  0  0  0  0  0  0  0  0  0
   31.2770   29.0900   21.0560 C   0  0  2  0  0  0  0  0  0  0  0  0
   31.7310   27.6680   21.2930 C   0  0  0  0  0  0  0  0  0  0  0  0
   30.1480   29.4150   21.7920 O   0  0  0  0  0  0  0  0  0  0  0  0
   30.5100   26.8030   21.4480 C   0  0  1  0  0  0  0  0  0  0  0  0
   29.8560   27.2210   22.7720 C   0  0  1  0  0  0  0  0  0  0  0  0
   30.9250   29.1780   19.7120 O   0  0  0  0  0  0  0  0  0  0  0  0
   29.9570   29.0520   19.5860 H   0  0  0  0  0  0  0  0  0  0  0  0
   32.4150   29.9740   21.3110 C   0  0  0  0  0  0  0  0  0  0  0  0
   32.2220   31.2090   21.4230 O   0  0  0  0  0  0  0  0  0  0  0  0
   33.7260   29.5350   21.4440 O   0  0  0  0  0  0  0  0  0  0  0  0
   34.1860   29.6350   22.3620 H   0  0  0  0  0  0  0  0  0  0  0  0
   29.6530   26.9540   20.3790 O   0  0  0  0  0  0  0  0  0  0  0  0
   29.6470   26.1050   19.8690 H   0  0  0  0  0  0  0  0  0  0  0  0
   30.5630   26.4910   23.8020 N   0  0  0  0  0  0  0  0  0  0  0  0
   29.8690   25.4810   24.5100 C   0  0  0  0  0  0  0  0  0  0  0  0
   31.5690   26.6860   24.0360 H   0  0  0  0  0  0  0  0  0  0  0  0
   30.5650   24.7030   25.5820 C   0  0  0  0  0  0  0  0  0  0  0  0
   28.6770   25.2360   24.2440 O   0  0  0  0  0  0  0  0  0  0  0  0
   27.9500   28.1580   24.0960 O   0  0  0  0  0  0  0  0  0  0  0  0
   27.4580   27.7240   23.3770 H   0  0  0  0  0  0  0  0  0  0  0  0
   28.0960   31.3900   23.1270 O   0  0  0  0  0  0  0  0  0  0  0  0
   27.5780   31.9900   22.5590 H   0  0  0  0  0  0  0  0  0  0  0  0
   28.5300   32.1780   16.1950 C   0  0  0  0  0  0  0  0  0  0  0  0
   29.4650   32.9490   15.3070 C   0  0  0  0  0  0  0  0  0  0  0  0
   30.8520   32.3590   15.2790 C   0  0  0  0  0  0  0  0  0  0  0  0
   31.8520   33.3770   15.8210 C   0  0  0  0  0  0  0  0  0  0  0  0
   31.2750   34.7590   15.6550 C   0  0  0  0  0  0  0  0  0  0  0  0
   31.3320   35.5400   16.9360 C   0  0  0  0  0  0  0  0  0  0  0  0
   32.2230   34.8650   17.9250 C   0  0  0  0  0  0  0  0  0  0  0  0
   31.5200   34.6930   19.2690 C   0  0  0  0  0  0  0  0  0  0  0  0
   30.0780   34.2930   19.1080 C   0  0  0  0  0  0  0  0  0  0  0  0
   29.9780   32.8740   19.5720 C   0  0  0  0  0  0  0  0  0  0  0  0
   29.2720   32.5140   20.5370 O   0  0  0  0  0  0  0  0  0  0  0  0
   30.7030   31.8880   18.8990 O   0  0  0  0  0  0  0  0  0  0  0  0
   31.2370   32.1460   18.0880 H   0  0  0  0  0  0  0  0  0  0  0  0
   29.8670   25.5550   16.9770 C   0  0  0  0  0  0  0  0  0  0  0  0
   28.3450   25.7220   17.0260 C   0  0  0  0  0  0  0  0  0  0  0  0
   27.5990   24.4790   16.5650 C   0  0  0  0  0  0  0  0  0  0  0  0
   27.1930   23.6030   17.7170 C   0  0  0  0  0  0  0  0  0  0  0  0
   25.7060   23.2800   17.6120 C   0  0  0  0  0  0  0  0  0  0  0  0
   24.9820   24.3840   16.9400 N   0  0  0  0  0  0  0  0  0  0  0  0
  1 39  1  0  0  0  0
  1  2  1  0  0  0  0
  2  4  1  0  0  0  0
  2  6  1  0  0  0  0
  3  7  1  0  0  0  0
  3  5  1  0  0  0  0
  4  3  2  0  0  0  0
  6  5  2  0  0  0  0
  7  8  1  0  0  0  0
  8  9  1  0  0  0  0
  9 10  1  0  0  0  0
  9 12  2  0  0  0  0
 10 13  1  0  0  0  0
 11 10  1  0  0  0  0
 14 13  1  1  0  0  0
 14 37  1  0  0  0  0
 14 15  1  0  0  0  0
 15 35  1  6  0  0  0
 16 15  1  6  0  0  0
 17 22  1  6  0  0  0
 17 18  1  0  0  0  0
 17 24  1  0  0  0  0
 17 19  1  0  0  0  0
 18 20  1  0  0  0  0
 19 16  1  0  0  0  0
 20 28  1  6  0  0  0
 20 21  1  0  0  0  0
 21 16  1  0  0  0  0
 21 30  1  1  0  0  0
 23 22  1  0  0  0  0
 24 25  2  0  0  0  0
 24 26  1  0  0  0  0
 26 27  1  0  0  0  0
 29 28  1  0  0  0  0
 30 32  1  0  0  0  0
 30 31  1  0  0  0  0
 31 33  1  0  0  0  0
 34 31  2  0  0  0  0
 36 35  1  0  0  0  0
 38 37  1  0  0  0  0
 40 39  1  0  0  0  0
 41 40  1  0  0  0  0
 41 42  1  0  0  0  0
 43 42  1  0  0  0  0
 43 44  1  0  0  0  0
 44 45  1  0  0  0  0
 45 46  1  0  0  0  0
 47 46  1  0  0  0  0
 47 48  1  0  0  0  0
 48 49  2  0  0  0  0
 50 48  1  0  0  0  0
 51 50  1  0  0  0  0
 52 53  1  0  0  0  0
 54 53  1  0  0  0  0
 54 55  1  0  0  0  0
 56 55  1  0  0  0  0
 57 56  1  0  0  0  0
M  END
>  <REMARK>
 VINA RESULT:    -4.057      2.962      4.672
 INTER + INTRA:         -17.811
 INTER:                  -8.973
 INTRA:                  -8.837
 UNBOUND:                -8.298
 SMILES CC(=O)N[C@@H]1[C@@H](O)C[C@](O)(C(=O)O)O[C@H]1C(O)[C@H](O)CNC(=O)OCc1cn(CCCCCCCCCCC(=O)O)nn1
 SMILES IDX 29 1 28 2 26 3 27 4 43 5 42 6 25 7 24 8 22 9 21 10 23 12
 SMILES IDX 20 13 18 14 16 15 15 16 9 17 8 18 14 19 6 20 5 21 10 22
 SMILES IDX 11 24 12 25 13 26 7 28 4 30 2 31 1 33 3 34 17 35 19 37 30 39
 SMILES IDX 31 40 32 41 33 42 34 43 35 44 36 45 37 46 38 47 39 48 40 49
 SMILES IDX 41 50
 H PARENT 21 11 10 23 13 27 7 29 4 32 17 36 19 38 41 51
 Flexibility Score: inf
  4 active torsions:
  status: ('A' for Active; 'I' for Inactive)
    1  A    between atoms: CA   and  CB  
    2  A    between atoms: CB   and  CG  
    3  A    between atoms: CG   and  CD  
    4  A    between atoms: CD   and  CE  

>  <TORSDO>
F 26

>  <BEGIN_>
RES LYS A 131

$$$$
ligand_30_pose_3_2HRL.pdbqt
 OpenBabel07062320523D

  6  5  0  0  0  0  0  0  0  0999 V2000
   33.1930   34.6630    9.2900 C   0  0  0  0  0  0  0  0  0  0  0  0
   32.0600   35.3600   10.0340 C   0  0  0  0  0  0  0  0  0  0  0  0
   30.7280   35.2560    9.3370 C   0  0  0  0  0  0  0  0  0  0  0  0
   30.1650   36.6380    9.0450 C   0  0  0  0  0  0  0  0  0  0  0  0
   29.1470   36.5730    7.9230 C   0  0  0  0  0  0  0  0  0  0  0  0
   28.3370   37.8210    7.8600 N   0  0  0  0  0  0  0  0  0  0  0  0
  1  2  1  0  0  0  0
  3  2  1  0  0  0  0
  4  3  1  0  0  0  0
  5  4  1  0  0  0  0
  6  5  1  0  0  0  0
M  END
>  <EGIN_R>
ES LYS A 135

>  <REMARK>
  4 active torsions:
  status: ('A' for Active; 'I' for Inactive)
    5  A    between atoms: CA   and  CB  
    6  A    between atoms: CB   and  CG  
    7  A    between atoms: CG   and  CD  
    8  A    between atoms: CD   and  CE  

$$$$
