ligand_70_pose_10_2HRL.pdbqt
 OpenBabel07062320523D

 53 55  0  0  1  0  0  0  0  0999 V2000
   31.4980   33.8020   17.5600 C   0  0  0  0  0  0  0  0  0  0  0  0
   30.1920   33.1590   17.1850 C   0  0  2  0  0  0  0  0  0  0  0  0
   30.3360   31.7660   16.6350 C   0  0  1  0  0  0  0  0  0  0  0  0
   29.1030   30.9180   16.7630 C   0  0  2  0  0  0  0  0  0  0  0  0
   26.8140   31.1950   16.5170 C   0  0  2  0  0  0  0  0  0  0  0  0
   26.6100   29.8100   17.0780 C   0  0  0  0  0  0  0  0  0  0  0  0
   28.0600   31.3790   15.9740 O   0  0  0  0  0  0  0  0  0  0  0  0
   27.6630   29.4910   18.0860 C   0  0  1  0  0  0  0  0  0  0  0  0
   28.7210   30.6130   18.1700 C   0  0  1  0  0  0  0  0  0  0  0  0
   26.4870   32.1110   17.5130 O   0  0  0  0  0  0  0  0  0  0  0  0
   25.6870   31.8660   18.0160 H   0  0  0  0  0  0  0  0  0  0  0  0
   25.8150   31.3740   15.4200 C   0  0  0  0  0  0  0  0  0  0  0  0
   25.4010   30.3460   14.8280 O   0  0  0  0  0  0  0  0  0  0  0  0
   25.3400   32.6160   15.0400 O   0  0  0  0  0  0  0  0  0  0  0  0
   25.1170   33.3150   15.7550 H   0  0  0  0  0  0  0  0  0  0  0  0
   27.0960   29.2970   19.3580 O   0  0  0  0  0  0  0  0  0  0  0  0
   26.7010   30.1420   19.6800 H   0  0  0  0  0  0  0  0  0  0  0  0
   29.9000   30.0660   18.8500 N   0  0  0  0  0  0  0  0  0  0  0  0
   30.3900   30.5710   20.0810 C   0  0  0  0  0  0  0  0  0  0  0  0
   30.4140   29.2730   18.4260 H   0  0  0  0  0  0  0  0  0  0  0  0
   31.5910   30.0050   20.7540 C   0  0  0  0  0  0  0  0  0  0  0  0
   29.8120   31.5300   20.6510 O   0  0  0  0  0  0  0  0  0  0  0  0
   30.7220   31.8980   15.2860 O   0  0  0  0  0  0  0  0  0  0  0  0
   31.5260   32.4730   15.2830 H   0  0  0  0  0  0  0  0  0  0  0  0
   29.4700   33.9790   16.2940 O   0  0  0  0  0  0  0  0  0  0  0  0
   29.5710   33.5190   15.4020 H   0  0  0  0  0  0  0  0  0  0  0  0
   31.9620   34.6230   16.4670 N   0  0  0  0  0  0  0  0  0  0  0  0
   31.6970   36.0040   16.3690 C   0  0  0  0  0  0  0  0  0  0  0  0
   32.5330   34.2140   15.6760 H   0  0  0  0  0  0  0  0  0  0  0  0
   31.0340   36.6080   17.2370 O   0  0  0  0  0  0  0  0  0  0  0  0
   32.1590   36.7840   15.3000 O   0  0  0  0  0  0  0  0  0  0  0  0
   32.2610   36.2110   13.9880 C   0  0  0  0  0  0  0  0  0  0  0  0
   31.0040   35.5220   13.6290 C   0  0  0  0  0  0  0  0  0  0  0  0
   29.8300   36.0720   13.2180 C   0  0  0  0  0  0  0  0  0  0  0  0
   30.8350   34.1960   13.6610 N   0  0  0  0  0  0  0  0  0  0  0  0
   28.9740   35.0290   13.0120 N   0  0  0  0  0  0  0  0  0  0  0  0
   29.6000   33.9080   13.2850 N   0  0  0  0  0  0  0  0  0  0  0  0
   27.6320   35.1270   12.5760 C   0  0  0  0  0  0  0  0  0  0  0  0
   26.6190   35.1410   13.5180 C   0  0  0  0  0  0  0  0  0  0  0  0
   27.3640   35.2070   11.2280 C   0  0  0  0  0  0  0  0  0  0  0  0
   25.3450   35.2340   13.1030 N   0  0  0  0  0  0  0  0  0  0  0  0
   26.0380   35.3020   10.8200 C   0  0  0  0  0  0  0  0  0  0  0  0
   25.0450   35.3140   11.7770 C   0  0  0  0  0  0  0  0  0  0  0  0
   25.7430   35.3810    9.4930 C   0  0  0  0  0  0  0  0  0  0  0  0
   23.7280   35.4090   11.3750 C   0  0  0  0  0  0  0  0  0  0  0  0
   24.4150   35.4780    9.0780 C   0  0  0  0  0  0  0  0  0  0  0  0
   23.4170   35.4910   10.0220 C   0  0  0  0  0  0  0  0  0  0  0  0
   29.8670   25.5550   16.9770 C   0  0  0  0  0  0  0  0  0  0  0  0
   28.3450   25.7220   17.0260 C   0  0  0  0  0  0  0  0  0  0  0  0
   27.6020   24.3980   16.9320 C   0  0  0  0  0  0  0  0  0  0  0  0
   26.1500   24.5360   17.2990 C   0  0  0  0  0  0  0  0  0  0  0  0
   25.9470   25.8180   18.0990 C   0  0  0  0  0  0  0  0  0  0  0  0
   25.8050   25.5120   19.5420 N   0  0  0  0  0  0  0  0  0  0  0  0
  2  1  1  6  0  0  0
  3 23  1  6  0  0  0
  3  2  1  0  0  0  0
  4  3  1  1  0  0  0
  4  9  1  0  0  0  0
  5 12  1  6  0  0  0
  5  6  1  0  0  0  0
  5 10  1  0  0  0  0
  6  8  1  0  0  0  0
  7  5  1  0  0  0  0
  7  4  1  0  0  0  0
  8  9  1  0  0  0  0
  8 16  1  1  0  0  0
  9 18  1  1  0  0  0
 10 11  1  0  0  0  0
 13 12  2  0  0  0  0
 14 12  1  0  0  0  0
 14 15  1  0  0  0  0
 16 17  1  0  0  0  0
 18 19  1  0  0  0  0
 19 22  2  0  0  0  0
 19 21  1  0  0  0  0
 20 18  1  0  0  0  0
 24 23  1  0  0  0  0
 25  2  1  0  0  0  0
 26 25  1  0  0  0  0
 27  1  1  0  0  0  0
 28 27  1  0  0  0  0
 28 30  2  0  0  0  0
 29 27  1  0  0  0  0
 31 28  1  0  0  0  0
 32 31  1  0  0  0  0
 33 35  1  0  0  0  0
 33 32  1  0  0  0  0
 34 33  2  0  0  0  0
 36 34  1  0  0  0  0
 36 37  1  0  0  0  0
 37 35  2  0  0  0  0
 38 36  1  0  0  0  0
 38 39  2  0  0  0  0
 40 38  1  0  0  0  0
 41 39  1  0  0  0  0
 42 40  2  0  0  0  0
 42 43  1  0  0  0  0
 43 41  2  0  0  0  0
 44 42  1  0  0  0  0
 45 43  1  0  0  0  0
 46 44  2  0  0  0  0
 46 47  1  0  0  0  0
 47 45  2  0  0  0  0
 48 49  1  0  0  0  0
 50 49  1  0  0  0  0
 50 51  1  0  0  0  0
 51 52  1  0  0  0  0
 52 53  1  0  0  0  0
M  END
>  <REMARK>
 VINA RESULT:    -5.985      3.661      7.845
 INTER + INTRA:         -14.892
 INTER:                  -8.744
 INTRA:                  -6.148
 UNBOUND:                -4.533
 SMILES CC(=O)N[C@@H]1[C@@H](O)C[C@](O)(C(=O)O)O[C@H]1C(O)[C@H](O)CNC(=O)OCc1cn(-c2cnc3ccccc3c2)nn1
 SMILES IDX 20 1 18 2 16 3 15 4 9 5 8 6 14 7 6 8 5 9 10 10 11 12 12 13
 SMILES IDX 13 14 7 16 4 18 2 19 1 21 3 22 17 23 19 25 21 27 22 28 23 30
 SMILES IDX 24 31 25 32 26 33 27 34 40 35 28 36 39 37 29 38 30 39 38 40
 SMILES IDX 31 41 37 42 32 43 36 44 33 45 35 46 34 47
 H PARENT 10 11 13 15 7 17 4 20 17 24 19 26 21 29
 Flexibility Score: inf
  4 active torsions:
  status: ('A' for Active; 'I' for Inactive)
    1  A    between atoms: CA   and  CB  
    2  A    between atoms: CB   and  CG  
    3  A    between atoms: CG   and  CD  
    4  A    between atoms: CD   and  CE  

>  <TORSDO>
F 15

>  <BEGIN_>
RES LYS A 131

$$$$
ligand_70_pose_10_2HRL.pdbqt
 OpenBabel07062320523D

  6  5  0  0  0  0  0  0  0  0999 V2000
   33.1930   34.6630    9.2900 C   0  0  0  0  0  0  0  0  0  0  0  0
   32.0600   35.3600   10.0340 C   0  0  0  0  0  0  0  0  0  0  0  0
   30.7270   34.6740    9.8820 C   0  0  0  0  0  0  0  0  0  0  0  0
   30.3450   34.5640    8.4140 C   0  0  0  0  0  0  0  0  0  0  0  0
   29.4280   35.7050    8.0150 C   0  0  0  0  0  0  0  0  0  0  0  0
   28.4010   35.2510    7.0380 N   0  0  0  0  0  0  0  0  0  0  0  0
  1  2  1  0  0  0  0
  3  2  1  0  0  0  0
  4  3  1  0  0  0  0
  5  4  1  0  0  0  0
  6  5  1  0  0  0  0
M  END
>  <EGIN_R>
ES LYS A 135

>  <REMARK>
  4 active torsions:
  status: ('A' for Active; 'I' for Inactive)
    5  A    between atoms: CA   and  CB  
    6  A    between atoms: CB   and  CG  
    7  A    between atoms: CG   and  CD  
    8  A    between atoms: CD   and  CE  

$$$$
