ligand_5_pose_13_2HRL.pdbqt
 OpenBabel07062320523D

 51 52  0  0  1  0  0  0  0  0999 V2000
   29.5050   30.8750   15.3950 N   0  0  0  0  0  0  0  0  0  0  0  0
   30.4880   31.6890   15.9980 C   0  0  0  0  0  0  0  0  0  0  0  0
   30.5720   31.8290   17.2270 O   0  0  0  0  0  0  0  0  0  0  0  0
   29.5320   30.8690   14.3250 H   0  0  0  0  0  0  0  0  0  0  0  0
   28.5130   30.0870   16.0060 C   0  0  0  0  0  0  0  0  0  0  0  0
   27.2490   30.6900   16.4240 C   0  0  2  0  0  0  0  0  0  0  0  0
   26.4600   31.4530   15.4830 C   0  0  1  0  0  0  0  0  0  0  0  0
   25.1460   30.7990   15.0040 C   0  0  2  0  0  0  0  0  0  0  0  0
   23.5090   31.6430   13.5310 C   0  0  2  0  0  0  0  0  0  0  0  0
   22.6120   32.0420   14.7150 C   0  0  0  0  0  0  0  0  0  0  0  0
   24.7680   31.6460   13.9770 O   0  0  0  0  0  0  0  0  0  0  0  0
   22.7150   30.9360   15.6930 C   0  0  1  0  0  0  0  0  0  0  0  0
   24.1630   30.5590   16.0540 C   0  0  1  0  0  0  0  0  0  0  0  0
   23.4100   32.7680   12.6680 O   0  0  0  0  0  0  0  0  0  0  0  0
   23.5140   32.4990   11.7230 H   0  0  0  0  0  0  0  0  0  0  0  0
   23.0340   30.4840   12.8020 C   0  0  0  0  0  0  0  0  0  0  0  0
   23.8280   29.5590   12.4940 O   0  0  0  0  0  0  0  0  0  0  0  0
   21.7210   30.2710   12.3830 O   0  0  0  0  0  0  0  0  0  0  0  0
   20.9650   30.0520   13.0370 H   0  0  0  0  0  0  0  0  0  0  0  0
   22.0640   31.1970   16.9100 O   0  0  0  0  0  0  0  0  0  0  0  0
   21.3350   31.8510   16.6730 H   0  0  0  0  0  0  0  0  0  0  0  0
   24.0100   29.2190   16.5310 N   0  0  0  0  0  0  0  0  0  0  0  0
   24.0200   28.7770   17.8540 C   0  0  0  0  0  0  0  0  0  0  0  0
   23.8740   28.4870   15.7720 H   0  0  0  0  0  0  0  0  0  0  0  0
   23.8510   27.3320   18.2000 C   0  0  0  0  0  0  0  0  0  0  0  0
   24.1760   29.6310   18.7340 O   0  0  0  0  0  0  0  0  0  0  0  0
   26.2140   32.7280   15.9810 O   0  0  0  0  0  0  0  0  0  0  0  0
   26.8620   33.3960   15.6420 H   0  0  0  0  0  0  0  0  0  0  0  0
   27.4270   31.3520   17.6730 O   0  0  0  0  0  0  0  0  0  0  0  0
   26.6860   31.9950   17.8210 H   0  0  0  0  0  0  0  0  0  0  0  0
   31.4330   32.3870   15.2180 O   0  0  0  0  0  0  0  0  0  0  0  0
   31.3260   33.7820   15.0810 C   0  0  0  0  0  0  0  0  0  0  0  0
   30.0000   34.1290   14.5460 C   0  0  0  0  0  0  0  0  0  0  0  0
   29.7740   34.4940   13.2140 C   0  0  0  0  0  0  0  0  0  0  0  0
   28.8020   34.1800   15.1240 N   0  0  0  0  0  0  0  0  0  0  0  0
   28.4600   34.7440   13.0600 N   0  0  0  0  0  0  0  0  0  0  0  0
   27.9020   34.5400   14.2500 N   0  0  0  0  0  0  0  0  0  0  0  0
   27.7940   35.1430   11.8710 C   0  0  0  0  0  0  0  0  0  0  0  0
   27.6020   36.4610   11.5250 C   0  0  0  0  0  0  0  0  0  0  0  0
   27.2970   34.1860   10.9830 C   0  0  0  0  0  0  0  0  0  0  0  0
   26.9500   36.8330   10.3550 C   0  0  0  0  0  0  0  0  0  0  0  0
   26.6480   34.5570    9.8220 C   0  0  0  0  0  0  0  0  0  0  0  0
   26.4660   35.8800    9.4910 C   0  0  0  0  0  0  0  0  0  0  0  0
   25.8270   36.2490    8.3460 O   0  0  0  0  0  0  0  0  0  0  0  0
   25.9870   37.5570    7.8400 C   0  0  0  0  0  0  0  0  0  0  0  0
   29.8670   25.5550   16.9770 C   0  0  0  0  0  0  0  0  0  0  0  0
   28.3450   25.7220   17.0260 C   0  0  0  0  0  0  0  0  0  0  0  0
   27.6010   24.4030   16.8880 C   0  0  0  0  0  0  0  0  0  0  0  0
   26.1580   24.5210   17.2910 C   0  0  0  0  0  0  0  0  0  0  0  0
   26.0460   24.4550   18.8110 C   0  0  0  0  0  0  0  0  0  0  0  0
   25.5430   23.1270   19.2360 N   0  0  0  0  0  0  0  0  0  0  0  0
  1  2  1  0  0  0  0
  1  5  1  0  0  0  0
  2  3  2  0  0  0  0
  4  1  1  0  0  0  0
  6  5  1  6  0  0  0
  6 29  1  0  0  0  0
  7 27  1  1  0  0  0
  7  6  1  0  0  0  0
  8  7  1  1  0  0  0
  8 13  1  0  0  0  0
  9 14  1  6  0  0  0
  9 11  1  0  0  0  0
  9 10  1  0  0  0  0
 10 12  1  0  0  0  0
 11  8  1  0  0  0  0
 12 13  1  0  0  0  0
 12 20  1  1  0  0  0
 13 22  1  6  0  0  0
 15 14  1  0  0  0  0
 16  9  1  0  0  0  0
 17 16  2  0  0  0  0
 18 16  1  0  0  0  0
 18 19  1  0  0  0  0
 21 20  1  0  0  0  0
 22 23  1  0  0  0  0
 23 25  1  0  0  0  0
 23 26  2  0  0  0  0
 24 22  1  0  0  0  0
 28 27  1  0  0  0  0
 29 30  1  0  0  0  0
 31  2  1  0  0  0  0
 32 31  1  0  0  0  0
 33 32  1  0  0  0  0
 33 35  1  0  0  0  0
 34 33  2  0  0  0  0
 36 34  1  0  0  0  0
 36 37  1  0  0  0  0
 37 35  2  0  0  0  0
 38 36  1  0  0  0  0
 39 38  1  0  0  0  0
 40 38  2  0  0  0  0
 41 39  2  0  0  0  0
 42 40  1  0  0  0  0
 43 42  2  0  0  0  0
 43 41  1  0  0  0  0
 44 43  1  0  0  0  0
 45 44  1  0  0  0  0
 46 47  1  0  0  0  0
 48 47  1  0  0  0  0
 48 49  1  0  0  0  0
 49 50  1  0  0  0  0
 50 51  1  0  0  0  0
M  END
>  <REMARK>
 VINA RESULT:    -4.876      5.861      9.851
 INTER + INTRA:         -13.950
 INTER:                  -8.625
 INTRA:                  -5.325
 UNBOUND:                -5.226
 SMILES COc1ccc(-n2cc(COC(=O)NC[C@@H](O)C(O)[C@@H]3O[C@@](O)(C(=O)O)C[C@H](O)[C@H]3NC(C)=O)nn2)cc1
 SMILES IDX 14 1 12 2 13 3 15 5 16 6 18 7 20 8 22 9 27 10 21 11 28 12
 SMILES IDX 30 13 23 14 24 16 25 17 26 18 29 20 31 22 32 23 33 25 34 26
 SMILES IDX 19 27 17 29 11 31 10 32 9 33 8 34 35 35 7 36 36 37 6 38 5 39
 SMILES IDX 37 40 4 41 38 42 3 43 2 44 1 45
 H PARENT 14 4 23 15 26 19 29 21 31 24 19 28 17 30
 Flexibility Score: inf
  4 active torsions:
  status: ('A' for Active; 'I' for Inactive)
    1  A    between atoms: CA   and  CB  
    2  A    between atoms: CB   and  CG  
    3  A    between atoms: CG   and  CD  
    4  A    between atoms: CD   and  CE  

>  <TORSDO>
F 16

>  <BEGIN_>
RES LYS A 131

$$$$
ligand_5_pose_13_2HRL.pdbqt
 OpenBabel07062320523D

  6  5  0  0  0  0  0  0  0  0999 V2000
   33.1930   34.6630    9.2900 C   0  0  0  0  0  0  0  0  0  0  0  0
   32.0600   35.3600   10.0340 C   0  0  0  0  0  0  0  0  0  0  0  0
   30.6960   34.8070    9.7100 C   0  0  0  0  0  0  0  0  0  0  0  0
   30.6080   34.4210    8.2410 C   0  0  0  0  0  0  0  0  0  0  0  0
   29.4430   35.1270    7.5750 C   0  0  0  0  0  0  0  0  0  0  0  0
   29.5170   36.6000    7.7830 N   0  0  0  0  0  0  0  0  0  0  0  0
  1  2  1  0  0  0  0
  3  2  1  0  0  0  0
  4  3  1  0  0  0  0
  5  6  1  0  0  0  0
  5  4  1  0  0  0  0
M  END
>  <EGIN_R>
ES LYS A 135

>  <REMARK>
  4 active torsions:
  status: ('A' for Active; 'I' for Inactive)
    5  A    between atoms: CA   and  CB  
    6  A    between atoms: CB   and  CG  
    7  A    between atoms: CG   and  CD  
    8  A    between atoms: CD   and  CE  

$$$$
