ligand_18_pose_16_2HRL.pdbqt
 OpenBabel07062320523D

 54 55  0  0  1  0  0  0  0  0999 V2000
   24.5840   39.7710    7.5120 N   0  0  0  0  0  0  0  0  0  0  0  0
   23.1780   39.8690    7.5770 C   0  0  0  0  0  0  0  0  0  0  0  0
   22.6290   40.9000    7.1180 O   0  0  0  0  0  0  0  0  0  0  0  0
   25.0190   38.9050    7.9000 H   0  0  0  0  0  0  0  0  0  0  0  0
   25.4630   40.7740    6.9460 C   0  0  0  0  0  0  0  0  0  0  0  0
   26.2580   40.2090    5.8020 C   0  0  2  0  0  0  0  0  0  0  0  0
   27.0460   38.9870    6.1330 C   0  0  1  0  0  0  0  0  0  0  0  0
   28.3020   39.1520    6.9020 C   0  0  2  0  0  0  0  0  0  0  0  0
   30.4350   40.0380    6.5310 C   0  0  2  0  0  0  0  0  0  0  0  0
   30.4940   39.8530    8.0370 C   0  0  0  0  0  0  0  0  0  0  0  0
   29.2120   39.7790    5.9880 O   0  0  0  0  0  0  0  0  0  0  0  0
   30.1180   38.4450    8.3420 C   0  0  1  0  0  0  0  0  0  0  0  0
   29.0160   37.9540    7.3820 C   0  0  1  0  0  0  0  0  0  0  0  0
   31.4420   39.1990    6.0160 O   0  0  0  0  0  0  0  0  0  0  0  0
   31.0060   38.4060    5.5970 H   0  0  0  0  0  0  0  0  0  0  0  0
   30.7970   41.4320    6.1670 C   0  0  0  0  0  0  0  0  0  0  0  0
   31.9420   41.8510    6.4390 O   0  0  0  0  0  0  0  0  0  0  0  0
   29.9000   42.2860    5.5320 O   0  0  0  0  0  0  0  0  0  0  0  0
   29.8250   42.1830    4.5180 H   0  0  0  0  0  0  0  0  0  0  0  0
   31.1820   37.5700    8.3550 O   0  0  0  0  0  0  0  0  0  0  0  0
   31.7010   37.6450    9.1950 H   0  0  0  0  0  0  0  0  0  0  0  0
   28.3010   36.9670    8.1010 N   0  0  0  0  0  0  0  0  0  0  0  0
   27.9830   35.7350    7.4930 C   0  0  0  0  0  0  0  0  0  0  0  0
   27.9960   37.1160    9.0730 H   0  0  0  0  0  0  0  0  0  0  0  0
   27.2280   34.6610    8.2110 C   0  0  0  0  0  0  0  0  0  0  0  0
   28.3190   35.4570    6.2930 O   0  0  0  0  0  0  0  0  0  0  0  0
   26.2940   37.8570    6.4200 O   0  0  0  0  0  0  0  0  0  0  0  0
   26.6860   37.0260    6.1240 H   0  0  0  0  0  0  0  0  0  0  0  0
   26.9820   41.1550    5.0870 O   0  0  0  0  0  0  0  0  0  0  0  0
   26.7770   41.1530    4.1240 H   0  0  0  0  0  0  0  0  0  0  0  0
   22.3780   38.8620    8.1340 O   0  0  0  0  0  0  0  0  0  0  0  0
   22.5290   37.5140    7.7270 C   0  0  0  0  0  0  0  0  0  0  0  0
   23.0720   36.7430    8.8800 C   0  0  0  0  0  0  0  0  0  0  0  0
   23.7550   37.2200    9.9790 C   0  0  0  0  0  0  0  0  0  0  0  0
   23.0020   35.4160    9.0740 N   0  0  0  0  0  0  0  0  0  0  0  0
   24.0680   36.1920   10.7820 N   0  0  0  0  0  0  0  0  0  0  0  0
   23.5980   35.1060   10.2080 N   0  0  0  0  0  0  0  0  0  0  0  0
   24.7940   36.3160   12.0560 C   0  0  0  0  0  0  0  0  0  0  0  0
   25.1830   34.9430   12.4570 C   0  0  0  0  0  0  0  0  0  0  0  0
   26.4030   34.5960   12.3250 O   0  0  0  0  0  0  0  0  0  0  0  0
   24.3030   33.9670   12.9800 N   0  0  0  0  0  0  0  0  0  0  0  0
   23.3120   34.2490   13.0860 H   0  0  0  0  0  0  0  0  0  0  0  0
   24.7260   32.6390   13.3600 C   0  0  0  0  0  0  0  0  0  0  0  0
   23.5690   31.7120   13.0410 C   0  0  0  0  0  0  0  0  0  0  0  0
   23.5610   30.3960   12.8600 C   0  0  0  0  0  0  0  0  0  0  0  0
   21.9170   32.1860   12.8260 S   0  0  0  0  0  0  0  0  0  0  0  0
   22.4110   29.7470   12.5790 C   0  0  0  0  0  0  0  0  0  0  0  0
   21.2650   30.5510   12.4950 C   0  0  0  0  0  0  0  0  0  0  0  0
   29.8670   25.5550   16.9770 C   0  0  0  0  0  0  0  0  0  0  0  0
   28.3450   25.7220   17.0260 C   0  0  0  0  0  0  0  0  0  0  0  0
   27.6010   24.4020   16.8900 C   0  0  0  0  0  0  0  0  0  0  0  0
   26.1500   24.5290   17.2630 C   0  0  0  0  0  0  0  0  0  0  0  0
   25.6310   23.1800   17.7500 C   0  0  0  0  0  0  0  0  0  0  0  0
   25.5020   23.1760   19.2270 N   0  0  0  0  0  0  0  0  0  0  0  0
  1  2  1  0  0  0  0
  1  4  1  0  0  0  0
  2 31  1  0  0  0  0
  3  2  2  0  0  0  0
  5  1  1  0  0  0  0
  6  7  1  0  0  0  0
  6  5  1  1  0  0  0
  7 27  1  1  0  0  0
  8  7  1  6  0  0  0
  8 13  1  0  0  0  0
  9 14  1  6  0  0  0
  9 10  1  0  0  0  0
 10 12  1  0  0  0  0
 11  9  1  0  0  0  0
 11  8  1  0  0  0  0
 12 20  1  6  0  0  0
 13 22  1  1  0  0  0
 13 12  1  0  0  0  0
 15 14  1  0  0  0  0
 16 17  2  0  0  0  0
 16  9  1  0  0  0  0
 18 16  1  0  0  0  0
 19 18  1  0  0  0  0
 20 21  1  0  0  0  0
 22 24  1  0  0  0  0
 23 22  1  0  0  0  0
 23 25  1  0  0  0  0
 26 23  2  0  0  0  0
 28 27  1  0  0  0  0
 29  6  1  0  0  0  0
 30 29  1  0  0  0  0
 32 31  1  0  0  0  0
 32 33  1  0  0  0  0
 33 35  1  0  0  0  0
 33 34  2  0  0  0  0
 34 36  1  0  0  0  0
 35 37  2  0  0  0  0
 36 38  1  0  0  0  0
 37 36  1  0  0  0  0
 38 39  1  0  0  0  0
 39 41  1  0  0  0  0
 40 39  2  0  0  0  0
 41 42  1  0  0  0  0
 41 43  1  0  0  0  0
 44 43  1  0  0  0  0
 45 44  2  0  0  0  0
 46 44  1  0  0  0  0
 47 45  1  0  0  0  0
 48 47  2  0  0  0  0
 48 46  1  0  0  0  0
 49 50  1  0  0  0  0
 51 50  1  0  0  0  0
 51 52  1  0  0  0  0
 52 53  1  0  0  0  0
 53 54  1  0  0  0  0
M  END
>  <REMARK>
 VINA RESULT:    -4.139      2.927      5.577
 INTER + INTRA:         -14.677
 INTER:                  -9.832
 INTRA:                  -4.845
 UNBOUND:                -6.788
 SMILES CC(=O)N[C@@H]1[C@@H](O)C[C@](O)(C(=O)O)O[C@H]1C(O)[C@H](O)CNC(=O)OCc1cn(CC(=O)NCc2cccs2)nn1
 SMILES IDX 21 1 22 2 23 3 20 5 18 6 16 7 15 8 9 9 8 10 14 11 6 12 5 13
 SMILES IDX 10 14 11 16 12 17 13 18 7 20 4 22 2 23 1 25 3 26 17 27 19 29
 SMILES IDX 24 31 25 32 26 33 27 34 40 35 28 36 39 37 29 38 30 39 31 40
 SMILES IDX 32 41 33 43 34 44 35 45 38 46 36 47 37 48
 H PARENT 21 4 10 15 13 19 7 21 4 24 17 28 19 30 32 42
 Flexibility Score: inf
  4 active torsions:
  status: ('A' for Active; 'I' for Inactive)
    1  A    between atoms: CA   and  CB  
    2  A    between atoms: CB   and  CG  
    3  A    between atoms: CG   and  CD  
    4  A    between atoms: CD   and  CE  

>  <TORSDO>
F 18

>  <BEGIN_>
RES LYS A 131

$$$$
ligand_18_pose_16_2HRL.pdbqt
 OpenBabel07062320523D

  6  5  0  0  0  0  0  0  0  0999 V2000
   33.1930   34.6630    9.2900 C   0  0  0  0  0  0  0  0  0  0  0  0
   32.0600   35.3600   10.0340 C   0  0  0  0  0  0  0  0  0  0  0  0
   30.7420   34.6360    9.9390 C   0  0  0  0  0  0  0  0  0  0  0  0
   29.7490   35.1940   10.9470 C   0  0  0  0  0  0  0  0  0  0  0  0
   30.4330   35.4680   12.2730 C   0  0  0  0  0  0  0  0  0  0  0  0
   30.2560   34.3270   13.2130 N   0  0  0  0  0  0  0  0  0  0  0  0
  1  2  1  0  0  0  0
  3  2  1  0  0  0  0
  3  4  1  0  0  0  0
  4  5  1  0  0  0  0
  5  6  1  0  0  0  0
M  END
>  <EGIN_R>
ES LYS A 135

>  <REMARK>
  4 active torsions:
  status: ('A' for Active; 'I' for Inactive)
    5  A    between atoms: CA   and  CB  
    6  A    between atoms: CB   and  CG  
    7  A    between atoms: CG   and  CD  
    8  A    between atoms: CD   and  CE  

$$$$
