ligand_45_pose_14_2HRL.pdbqt
 OpenBabel07062320523D

 52 52  0  0  1  0  0  0  0  0999 V2000
   32.2850   34.0910   15.6230 O   0  0  0  0  0  0  0  0  0  0  0  0
   31.5450   33.0730   16.1890 C   0  0  0  0  0  0  0  0  0  0  0  0
   31.0430   31.9750   15.4190 N   0  0  0  0  0  0  0  0  0  0  0  0
   31.2740   31.9850   14.4200 H   0  0  0  0  0  0  0  0  0  0  0  0
   31.3060   33.1140   17.4180 O   0  0  0  0  0  0  0  0  0  0  0  0
   30.2910   30.9690   16.0720 C   0  0  0  0  0  0  0  0  0  0  0  0
   28.8780   30.7890   15.6280 C   0  0  2  0  0  0  0  0  0  0  0  0
   27.9210   31.8580   16.0560 C   0  0  1  0  0  0  0  0  0  0  0  0
   28.0330   32.2710   17.4920 C   0  0  2  0  0  0  0  0  0  0  0  0
   28.2890   31.4200   19.6130 C   0  0  2  0  0  0  0  0  0  0  0  0
   28.5390   32.8940   19.8680 C   0  0  0  0  0  0  0  0  0  0  0  0
   28.1350   31.1460   18.2750 O   0  0  0  0  0  0  0  0  0  0  0  0
   27.4020   33.7210   19.3540 C   0  0  1  0  0  0  0  0  0  0  0  0
   26.9580   33.1690   17.9970 C   0  0  1  0  0  0  0  0  0  0  0  0
   27.0910   31.0870   20.2720 O   0  0  0  0  0  0  0  0  0  0  0  0
   26.8420   31.8910   20.7980 H   0  0  0  0  0  0  0  0  0  0  0  0
   29.3800   30.6210   20.1920 C   0  0  0  0  0  0  0  0  0  0  0  0
   29.4410   30.4330   21.4390 O   0  0  0  0  0  0  0  0  0  0  0  0
   30.3610   30.0560   19.4020 O   0  0  0  0  0  0  0  0  0  0  0  0
   30.1570   29.2950   18.7830 H   0  0  0  0  0  0  0  0  0  0  0  0
   26.3480   33.6560   20.2750 O   0  0  0  0  0  0  0  0  0  0  0  0
   25.7470   34.4210   20.1390 H   0  0  0  0  0  0  0  0  0  0  0  0
   26.8040   34.3600   17.1570 N   0  0  0  0  0  0  0  0  0  0  0  0
   25.5780   35.0660   17.1300 C   0  0  0  0  0  0  0  0  0  0  0  0
   27.6140   34.6800   16.5780 H   0  0  0  0  0  0  0  0  0  0  0  0
   25.4350   36.2790   16.2640 C   0  0  0  0  0  0  0  0  0  0  0  0
   24.5640   34.7250   17.8150 O   0  0  0  0  0  0  0  0  0  0  0  0
   28.0780   32.9690   15.2140 O   0  0  0  0  0  0  0  0  0  0  0  0
   27.3280   32.9470   14.5570 H   0  0  0  0  0  0  0  0  0  0  0  0
   28.4550   29.5380   16.1260 O   0  0  0  0  0  0  0  0  0  0  0  0
   29.1680   29.0610   16.5960 H   0  0  0  0  0  0  0  0  0  0  0  0
   31.8000   35.4240   15.7110 C   0  0  0  0  0  0  0  0  0  0  0  0
   30.5280   35.5480   14.9630 C   0  0  0  0  0  0  0  0  0  0  0  0
   30.3010   35.5830   13.6050 C   0  0  0  0  0  0  0  0  0  0  0  0
   29.3010   35.6570   15.5150 N   0  0  0  0  0  0  0  0  0  0  0  0
   28.9820   35.7090   13.3610 N   0  0  0  0  0  0  0  0  0  0  0  0
   28.4120   35.7500   14.5470 N   0  0  0  0  0  0  0  0  0  0  0  0
   28.2980   35.7910   12.1120 C   0  0  0  0  0  0  0  0  0  0  0  0
   27.2190   34.7920   11.9420 C   0  0  0  0  0  0  0  0  0  0  0  0
   26.0550   35.1400   11.1110 C   0  0  0  0  0  0  0  0  0  0  0  0
   24.8080   35.4240   11.6930 N   0  0  0  0  0  0  0  0  0  0  0  0
   24.6610   36.7050   12.3310 C   0  0  0  0  0  0  0  0  0  0  0  0
   23.8400   35.4540   10.5780 C   0  0  0  0  0  0  0  0  0  0  0  0
   24.4390   35.7410    9.2560 C   0  0  0  0  0  0  0  0  0  0  0  0
   24.3390   34.4120   12.5980 C   0  0  0  0  0  0  0  0  0  0  0  0
   22.9500   33.9440   12.3580 C   0  0  0  0  0  0  0  0  0  0  0  0
   29.8670   25.5550   16.9770 C   0  0  0  0  0  0  0  0  0  0  0  0
   28.3450   25.7220   17.0260 C   0  0  0  0  0  0  0  0  0  0  0  0
   27.6010   24.4010   16.8990 C   0  0  0  0  0  0  0  0  0  0  0  0
   26.1450   24.5350   17.2490 C   0  0  0  0  0  0  0  0  0  0  0  0
   25.5700   23.1590   17.5680 C   0  0  0  0  0  0  0  0  0  0  0  0
   24.1660   23.0630   17.1030 N   0  0  0  0  0  0  0  0  0  0  0  0
  1 32  1  0  0  0  0
  1  2  1  0  0  0  0
  2  5  2  0  0  0  0
  3  6  1  0  0  0  0
  3  2  1  0  0  0  0
  4  3  1  0  0  0  0
  7  8  1  0  0  0  0
  7  6  1  1  0  0  0
  7 30  1  0  0  0  0
  8 28  1  6  0  0  0
  9  8  1  6  0  0  0
  9 14  1  0  0  0  0
  9 12  1  0  0  0  0
 10 11  1  0  0  0  0
 10 17  1  1  0  0  0
 10 15  1  0  0  0  0
 12 10  1  0  0  0  0
 13 11  1  0  0  0  0
 13 21  1  1  0  0  0
 14 23  1  6  0  0  0
 14 13  1  0  0  0  0
 15 16  1  0  0  0  0
 17 18  2  0  0  0  0
 19 17  1  0  0  0  0
 20 19  1  0  0  0  0
 22 21  1  0  0  0  0
 24 23  1  0  0  0  0
 24 27  2  0  0  0  0
 25 23  1  0  0  0  0
 26 24  1  0  0  0  0
 29 28  1  0  0  0  0
 30 31  1  0  0  0  0
 33 35  1  0  0  0  0
 33 32  1  0  0  0  0
 34 33  2  0  0  0  0
 36 34  1  0  0  0  0
 36 37  1  0  0  0  0
 37 35  2  0  0  0  0
 38 36  1  0  0  0  0
 39 38  1  0  0  0  0
 40 41  1  0  0  0  0
 40 39  1  0  0  0  0
 41 42  1  0  0  0  0
 41 45  1  0  0  0  0
 43 41  1  0  0  0  0
 44 43  1  0  0  0  0
 46 45  1  0  0  0  0
 47 48  1  0  0  0  0
 49 48  1  0  0  0  0
 49 50  1  0  0  0  0
 50 51  1  0  0  0  0
 52 51  1  0  0  0  0
M  END
>  <REMARK>
 VINA RESULT:    -4.064      3.619      6.577
 INTER + INTRA:         -14.096
 INTER:                  -7.138
 INTRA:                  -6.958
 UNBOUND:                -5.875
 SMILES CC[N+](C)(CC)CCCn1cc(COC(=O)NC[C@@H](O)C(O)[C@@H]2O[C@@](O)(C(=O)O)C[C@H](O)[C@H]2NC(C)=O)nn1
 SMILES IDX 14 1 15 2 17 3 16 5 18 6 19 7 21 8 23 9 25 10 30 11 24 12
 SMILES IDX 31 13 33 14 26 15 27 17 28 18 29 19 32 21 34 23 35 24 36 26
 SMILES IDX 37 27 22 28 20 30 13 32 12 33 11 34 38 35 10 36 39 37 9 38
 SMILES IDX 8 39 7 40 3 41 4 42 2 43 1 44 5 45 6 46
 H PARENT 17 4 26 16 29 20 32 22 34 25 22 29 20 31
 Flexibility Score: inf
  4 active torsions:
  status: ('A' for Active; 'I' for Inactive)
    1  A    between atoms: CA   and  CB  
    2  A    between atoms: CB   and  CG  
    3  A    between atoms: CG   and  CD  
    4  A    between atoms: CD   and  CE  

>  <TORSDO>
F 20

>  <BEGIN_>
RES LYS A 131

$$$$
ligand_45_pose_14_2HRL.pdbqt
 OpenBabel07062320523D

  6  5  0  0  0  0  0  0  0  0999 V2000
   33.1930   34.6630    9.2900 C   0  0  0  0  0  0  0  0  0  0  0  0
   32.0600   35.3600   10.0340 C   0  0  0  0  0  0  0  0  0  0  0  0
   30.8030   35.5080    9.2160 C   0  0  0  0  0  0  0  0  0  0  0  0
   30.0190   34.2050    9.1960 C   0  0  0  0  0  0  0  0  0  0  0  0
   28.6960   34.3910    8.4780 C   0  0  0  0  0  0  0  0  0  0  0  0
   28.8450   35.2930    7.3020 N   0  0  0  0  0  0  0  0  0  0  0  0
  1  2  1  0  0  0  0
  3  2  1  0  0  0  0
  4  3  1  0  0  0  0
  5  4  1  0  0  0  0
  6  5  1  0  0  0  0
M  END
>  <EGIN_R>
ES LYS A 135

>  <REMARK>
  4 active torsions:
  status: ('A' for Active; 'I' for Inactive)
    5  A    between atoms: CA   and  CB  
    6  A    between atoms: CB   and  CG  
    7  A    between atoms: CG   and  CD  
    8  A    between atoms: CD   and  CE  

$$$$
