ligand_42_pose_10_2HRL.pdbqt
 OpenBabel07062320523D

 52 54  0  0  1  0  0  0  0  0999 V2000
   23.5820   29.8610   14.1530 C   0  0  0  0  0  0  0  0  0  0  0  0
   24.7800   30.0080   15.0310 C   0  0  2  0  0  0  0  0  0  0  0  0
   24.3690   30.3670   16.4690 C   0  0  1  0  0  0  0  0  0  0  0  0
   25.6140   30.6630   17.2230 C   0  0  2  0  0  0  0  0  0  0  0  0
   27.8010   30.1060   17.5470 C   0  0  2  0  0  0  0  0  0  0  0  0
   27.6950   31.3260   18.4370 C   0  0  0  0  0  0  0  0  0  0  0  0
   26.6720   29.8640   16.8040 O   0  0  0  0  0  0  0  0  0  0  0  0
   26.5160   31.2410   19.3880 C   0  0  1  0  0  0  0  0  0  0  0  0
   25.4650   30.4160   18.7240 C   0  0  1  0  0  0  0  0  0  0  0  0
   28.1380   29.0400   18.3830 O   0  0  0  0  0  0  0  0  0  0  0  0
   27.2760   28.6870   18.7330 H   0  0  0  0  0  0  0  0  0  0  0  0
   28.9100   30.3650   16.6010 C   0  0  0  0  0  0  0  0  0  0  0  0
   28.7030   30.2610   15.3680 O   0  0  0  0  0  0  0  0  0  0  0  0
   30.1820   30.7210   17.0170 O   0  0  0  0  0  0  0  0  0  0  0  0
   30.6970   31.5080   16.6360 H   0  0  0  0  0  0  0  0  0  0  0  0
   27.0100   30.6190   20.5550 O   0  0  0  0  0  0  0  0  0  0  0  0
   26.8270   29.6620   20.5450 H   0  0  0  0  0  0  0  0  0  0  0  0
   24.1420   30.6000   19.1990 N   0  0  0  0  0  0  0  0  0  0  0  0
   23.5500   29.9760   20.3300 C   0  0  0  0  0  0  0  0  0  0  0  0
   23.5280   31.2600   18.6740 H   0  0  0  0  0  0  0  0  0  0  0  0
   22.1410   30.2410   20.7460 C   0  0  0  0  0  0  0  0  0  0  0  0
   24.2630   29.1790   20.9810 O   0  0  0  0  0  0  0  0  0  0  0  0
   23.5220   31.4390   16.4020 O   0  0  0  0  0  0  0  0  0  0  0  0
   23.6870   32.1950   16.9760 H   0  0  0  0  0  0  0  0  0  0  0  0
   25.6290   30.9840   14.5810 O   0  0  0  0  0  0  0  0  0  0  0  0
   25.3720   31.4460   13.7540 H   0  0  0  0  0  0  0  0  0  0  0  0
   23.4380   30.9500   13.2520 N   0  0  0  0  0  0  0  0  0  0  0  0
   22.3510   31.8390   13.2740 C   0  0  0  0  0  0  0  0  0  0  0  0
   24.1750   31.1320   12.5050 H   0  0  0  0  0  0  0  0  0  0  0  0
   21.3920   31.7800   14.0600 O   0  0  0  0  0  0  0  0  0  0  0  0
   22.3200   32.8920   12.3410 O   0  0  0  0  0  0  0  0  0  0  0  0
   22.6810   34.1770   12.7480 C   0  0  0  0  0  0  0  0  0  0  0  0
   23.9040   34.0960   13.5880 C   0  0  0  0  0  0  0  0  0  0  0  0
   25.2150   34.2570   13.1520 C   0  0  0  0  0  0  0  0  0  0  0  0
   24.0020   33.8590   14.9070 N   0  0  0  0  0  0  0  0  0  0  0  0
   26.0550   34.1160   14.1930 N   0  0  0  0  0  0  0  0  0  0  0  0
   25.2800   33.8760   15.2360 N   0  0  0  0  0  0  0  0  0  0  0  0
   27.4740   34.2120   14.1430 C   0  0  0  0  0  0  0  0  0  0  0  0
   28.1010   34.7430   13.0340 C   0  0  0  0  0  0  0  0  0  0  0  0
   28.2850   33.7900   15.1760 C   0  0  0  0  0  0  0  0  0  0  0  0
   29.4900   34.8470   12.9640 C   0  0  0  0  0  0  0  0  0  0  0  0
   29.6750   33.8830   15.1280 C   0  0  0  0  0  0  0  0  0  0  0  0
   30.2780   34.4170   14.0100 C   0  0  0  0  0  0  0  0  0  0  0  0
   30.6890   33.5370   16.0170 O   0  0  0  0  0  0  0  0  0  0  0  0
   31.6630   34.3830   14.2480 O   0  0  0  0  0  0  0  0  0  0  0  0
   31.9130   33.4550   15.3090 C   0  0  0  0  0  0  0  0  0  0  0  0
   29.8670   25.5550   16.9770 C   0  0  0  0  0  0  0  0  0  0  0  0
   28.3450   25.7220   17.0260 C   0  0  0  0  0  0  0  0  0  0  0  0
   27.6010   24.4020   16.8970 C   0  0  0  0  0  0  0  0  0  0  0  0
   26.1690   24.5120   17.3400 C   0  0  0  0  0  0  0  0  0  0  0  0
   25.7860   23.2720   18.1410 C   0  0  0  0  0  0  0  0  0  0  0  0
   25.4580   23.6370   19.5390 N   0  0  0  0  0  0  0  0  0  0  0  0
  2  1  1  6  0  0  0
  2  3  1  0  0  0  0
  3 23  1  6  0  0  0
  4  3  1  6  0  0  0
  4  9  1  0  0  0  0
  5 12  1  6  0  0  0
  5 10  1  0  0  0  0
  5  6  1  0  0  0  0
  6  8  1  0  0  0  0
  7  4  1  0  0  0  0
  7  5  1  0  0  0  0
  8 16  1  1  0  0  0
  9 18  1  1  0  0  0
  9  8  1  0  0  0  0
 10 11  1  0  0  0  0
 12 14  1  0  0  0  0
 13 12  2  0  0  0  0
 15 14  1  0  0  0  0
 17 16  1  0  0  0  0
 18 19  1  0  0  0  0
 19 21  1  0  0  0  0
 19 22  2  0  0  0  0
 20 18  1  0  0  0  0
 23 24  1  0  0  0  0
 25  2  1  0  0  0  0
 26 25  1  0  0  0  0
 27 28  1  0  0  0  0
 27  1  1  0  0  0  0
 28 30  2  0  0  0  0
 29 27  1  0  0  0  0
 31 32  1  0  0  0  0
 31 28  1  0  0  0  0
 32 33  1  0  0  0  0
 33 35  1  0  0  0  0
 34 33  2  0  0  0  0
 34 36  1  0  0  0  0
 35 37  2  0  0  0  0
 36 37  1  0  0  0  0
 38 36  1  0  0  0  0
 38 40  2  0  0  0  0
 39 38  1  0  0  0  0
 41 39  2  0  0  0  0
 41 43  1  0  0  0  0
 42 40  1  0  0  0  0
 42 44  1  0  0  0  0
 43 45  1  0  0  0  0
 43 42  2  0  0  0  0
 45 46  1  0  0  0  0
 46 44  1  0  0  0  0
 47 48  1  0  0  0  0
 49 48  1  0  0  0  0
 49 50  1  0  0  0  0
 50 51  1  0  0  0  0
 51 52  1  0  0  0  0
M  END
>  <REMARK>
 VINA RESULT:    -5.587      4.824      6.960
 INTER + INTRA:         -14.217
 INTER:                  -6.699
 INTRA:                  -7.519
 UNBOUND:                -4.548
 SMILES CC(=O)N[C@@H]1[C@@H](O)C[C@](O)(C(=O)O)O[C@H]1C(O)[C@H](O)CNC(=O)OCc1cn(-c2ccc3c(c2)OCO3)nn1
 SMILES IDX 20 1 18 2 16 3 15 4 9 5 8 6 14 7 6 8 5 9 10 10 11 12 12 13
 SMILES IDX 13 14 7 16 4 18 2 19 1 21 3 22 17 23 19 25 21 27 22 28 23 30
 SMILES IDX 24 31 25 32 26 33 27 34 39 35 28 36 38 37 29 38 30 39 34 40
 SMILES IDX 31 41 33 42 32 43 35 44 37 45 36 46
 H PARENT 10 11 13 15 7 17 4 20 17 24 19 26 21 29
 Flexibility Score: inf
  4 active torsions:
  status: ('A' for Active; 'I' for Inactive)
    1  A    between atoms: CA   and  CB  
    2  A    between atoms: CB   and  CG  
    3  A    between atoms: CG   and  CD  
    4  A    between atoms: CD   and  CE  

>  <TORSDO>
F 15

>  <BEGIN_>
RES LYS A 131

$$$$
ligand_42_pose_10_2HRL.pdbqt
 OpenBabel07062320523D

  6  5  0  0  0  0  0  0  0  0999 V2000
   33.1930   34.6630    9.2900 C   0  0  0  0  0  0  0  0  0  0  0  0
   32.0600   35.3600   10.0340 C   0  0  0  0  0  0  0  0  0  0  0  0
   30.7920   35.4780    9.2280 C   0  0  0  0  0  0  0  0  0  0  0  0
   30.0720   34.1400    9.1620 C   0  0  0  0  0  0  0  0  0  0  0  0
   28.6590   34.3210    8.6400 C   0  0  0  0  0  0  0  0  0  0  0  0
   27.6630   33.7240    9.5720 N   0  0  0  0  0  0  0  0  0  0  0  0
  1  2  1  0  0  0  0
  3  2  1  0  0  0  0
  4  3  1  0  0  0  0
  5  4  1  0  0  0  0
  5  6  1  0  0  0  0
M  END
>  <EGIN_R>
ES LYS A 135

>  <REMARK>
  4 active torsions:
  status: ('A' for Active; 'I' for Inactive)
    5  A    between atoms: CA   and  CB  
    6  A    between atoms: CB   and  CG  
    7  A    between atoms: CG   and  CD  
    8  A    between atoms: CD   and  CE  

$$$$
