ligand_50_pose_19_2HRL.pdbqt
 OpenBabel07062320523D

 50 50  0  0  1  0  0  0  0  0999 V2000
   25.4610   34.1430   14.3270 N   0  0  0  0  0  0  0  0  0  0  0  0
   24.7310   35.3580   14.3050 C   0  0  0  0  0  0  0  0  0  0  0  0
   24.9470   36.2560   15.1370 O   0  0  0  0  0  0  0  0  0  0  0  0
   25.2000   33.4370   13.5740 H   0  0  0  0  0  0  0  0  0  0  0  0
   26.4720   33.8950   15.2970 C   0  0  0  0  0  0  0  0  0  0  0  0
   27.8780   34.0960   14.7750 C   0  0  2  0  0  0  0  0  0  0  0  0
   28.4830   35.2270   15.5970 C   0  0  1  0  0  0  0  0  0  0  0  0
   29.9290   34.8880   15.9760 C   0  0  2  0  0  0  0  0  0  0  0  0
   31.4450   34.9340   14.2170 C   0  0  2  0  0  0  0  0  0  0  0  0
   32.3980   34.0230   14.9640 C   0  0  0  0  0  0  0  0  0  0  0  0
   30.7390   35.6320   15.1660 O   0  0  0  0  0  0  0  0  0  0  0  0
   31.5770   33.0100   15.6850 C   0  0  1  0  0  0  0  0  0  0  0  0
   30.1420   33.4090   15.9150 C   0  0  1  0  0  0  0  0  0  0  0  0
   30.6500   34.1130   13.4190 O   0  0  0  0  0  0  0  0  0  0  0  0
   30.4380   33.2540   13.8500 H   0  0  0  0  0  0  0  0  0  0  0  0
   32.1790   35.9020   13.3620 C   0  0  0  0  0  0  0  0  0  0  0  0
   31.9220   37.1260   13.4840 O   0  0  0  0  0  0  0  0  0  0  0  0
   33.1160   35.4530   12.4620 O   0  0  0  0  0  0  0  0  0  0  0  0
   32.8320   34.9620   11.6200 H   0  0  0  0  0  0  0  0  0  0  0  0
   31.5630   31.8420   14.9130 O   0  0  0  0  0  0  0  0  0  0  0  0
   30.6780   31.7190   14.5240 H   0  0  0  0  0  0  0  0  0  0  0  0
   29.7400   32.7850   17.1580 N   0  0  0  0  0  0  0  0  0  0  0  0
   29.1090   31.5150   17.1250 C   0  0  0  0  0  0  0  0  0  0  0  0
   29.8940   33.2320   18.0910 H   0  0  0  0  0  0  0  0  0  0  0  0
   28.6680   30.8200   18.3850 C   0  0  0  0  0  0  0  0  0  0  0  0
   28.8770   30.8930   16.0570 O   0  0  0  0  0  0  0  0  0  0  0  0
   28.3820   36.4040   14.8970 O   0  0  0  0  0  0  0  0  0  0  0  0
   29.2260   36.6160   14.4100 H   0  0  0  0  0  0  0  0  0  0  0  0
   27.8530   34.4220   13.4190 O   0  0  0  0  0  0  0  0  0  0  0  0
   28.7070   34.1420   13.0380 H   0  0  0  0  0  0  0  0  0  0  0  0
   23.7390   35.5870   13.3390 O   0  0  0  0  0  0  0  0  0  0  0  0
   23.9040   35.0180   12.0720 C   0  0  0  0  0  0  0  0  0  0  0  0
   25.2370   35.3260   11.4940 C   0  0  0  0  0  0  0  0  0  0  0  0
   25.7430   36.5610   11.2100 C   0  0  0  0  0  0  0  0  0  0  0  0
   26.1740   34.4400   11.1490 N   0  0  0  0  0  0  0  0  0  0  0  0
   26.9880   36.3660   10.6970 N   0  0  0  0  0  0  0  0  0  0  0  0
   27.2370   35.0640   10.6660 N   0  0  0  0  0  0  0  0  0  0  0  0
   27.8830   37.4350   10.2600 C   0  0  0  0  0  0  0  0  0  0  0  0
   28.6980   37.8260   11.4770 C   0  0  1  0  0  0  0  0  0  0  0  0
   29.1160   36.6790   12.1400 O   0  0  0  0  0  0  0  0  0  0  0  0
   30.0960   36.5860   12.0030 H   0  0  0  0  0  0  0  0  0  0  0  0
   29.9200   38.6470   11.0500 C   0  0  0  0  0  0  0  0  0  0  0  0
   30.2660   38.3100    9.7400 O   0  0  0  0  0  0  0  0  0  0  0  0
   31.0740   37.7160    9.7560 H   0  0  0  0  0  0  0  0  0  0  0  0
   29.8670   25.5550   16.9770 C   0  0  0  0  0  0  0  0  0  0  0  0
   28.3450   25.7220   17.0260 C   0  0  0  0  0  0  0  0  0  0  0  0
   27.6010   24.4020   16.8960 C   0  0  0  0  0  0  0  0  0  0  0  0
   26.1550   24.5250   17.2900 C   0  0  0  0  0  0  0  0  0  0  0  0
   26.0610   24.9720   18.7450 C   0  0  0  0  0  0  0  0  0  0  0  0
   24.6590   24.8970   19.2200 N   0  0  0  0  0  0  0  0  0  0  0  0
  1  5  1  0  0  0  0
  2  1  1  0  0  0  0
  2  3  2  0  0  0  0
  4  1  1  0  0  0  0
  6  5  1  1  0  0  0
  6  7  1  0  0  0  0
  7 27  1  6  0  0  0
  8  7  1  6  0  0  0
  9 16  1  6  0  0  0
  9 10  1  0  0  0  0
  9 11  1  0  0  0  0
 10 12  1  0  0  0  0
 11  8  1  0  0  0  0
 12 20  1  6  0  0  0
 12 13  1  0  0  0  0
 13  8  1  0  0  0  0
 13 22  1  1  0  0  0
 14 15  1  0  0  0  0
 14  9  1  0  0  0  0
 16 17  2  0  0  0  0
 18 16  1  0  0  0  0
 19 18  1  0  0  0  0
 21 20  1  0  0  0  0
 22 24  1  0  0  0  0
 23 22  1  0  0  0  0
 23 25  1  0  0  0  0
 26 23  2  0  0  0  0
 28 27  1  0  0  0  0
 29  6  1  0  0  0  0
 30 29  1  0  0  0  0
 31  2  1  0  0  0  0
 32 31  1  0  0  0  0
 33 32  1  0  0  0  0
 34 33  2  0  0  0  0
 35 33  1  0  0  0  0
 36 34  1  0  0  0  0
 37 36  1  0  0  0  0
 37 35  2  0  0  0  0
 38 36  1  0  0  0  0
 39 38  1  6  0  0  0
 39 40  1  0  0  0  0
 41 40  1  0  0  0  0
 42 39  1  0  0  0  0
 43 44  1  0  0  0  0
 43 42  1  0  0  0  0
 45 46  1  0  0  0  0
 47 46  1  0  0  0  0
 47 48  1  0  0  0  0
 48 49  1  0  0  0  0
 49 50  1  0  0  0  0
M  END
>  <REMARK>
 VINA RESULT:    -4.435      3.966      7.119
 INTER + INTRA:         -13.930
 INTER:                  -7.488
 INTRA:                  -6.442
 UNBOUND:                -5.477
 SMILES CC(=O)N[C@@H]1[C@@H](O)C[C@](O)(C(=O)O)O[C@H]1C(O)[C@H](O)CNC(=O)OCc1cn(CC(O)CO)nn1
 SMILES IDX 21 1 22 2 23 3 20 5 18 6 16 7 15 8 9 9 8 10 14 11 6 12 5 13
 SMILES IDX 10 14 11 16 12 17 13 18 7 20 4 22 2 23 1 25 3 26 17 27 19 29
 SMILES IDX 24 31 25 32 26 33 27 34 35 35 28 36 34 37 29 38 30 39 31 40
 SMILES IDX 32 42 33 43
 H PARENT 21 4 10 15 13 19 7 21 4 24 17 28 19 30 31 41 33 44
 Flexibility Score: inf
  4 active torsions:
  status: ('A' for Active; 'I' for Inactive)
    1  A    between atoms: CA   and  CB  
    2  A    between atoms: CB   and  CG  
    3  A    between atoms: CG   and  CD  
    4  A    between atoms: CD   and  CE  

>  <TORSDO>
F 19

>  <BEGIN_>
RES LYS A 131

$$$$
ligand_50_pose_19_2HRL.pdbqt
 OpenBabel07062320523D

  6  5  0  0  0  0  0  0  0  0999 V2000
   33.1930   34.6630    9.2900 C   0  0  0  0  0  0  0  0  0  0  0  0
   32.0600   35.3600   10.0340 C   0  0  0  0  0  0  0  0  0  0  0  0
   30.7170   34.7070    9.8350 C   0  0  0  0  0  0  0  0  0  0  0  0
   30.4870   34.3890    8.3650 C   0  0  0  0  0  0  0  0  0  0  0  0
   29.6710   35.4830    7.7040 C   0  0  0  0  0  0  0  0  0  0  0  0
   28.2740   35.0340    7.4550 N   0  0  0  0  0  0  0  0  0  0  0  0
  1  2  1  0  0  0  0
  3  2  1  0  0  0  0
  4  3  1  0  0  0  0
  5  4  1  0  0  0  0
  6  5  1  0  0  0  0
M  END
>  <EGIN_R>
ES LYS A 135

>  <REMARK>
  4 active torsions:
  status: ('A' for Active; 'I' for Inactive)
    5  A    between atoms: CA   and  CB  
    6  A    between atoms: CB   and  CG  
    7  A    between atoms: CG   and  CD  
    8  A    between atoms: CD   and  CE  

$$$$
