ligand_32_pose_11_2HRL.pdbqt
 OpenBabel07062320523D

 49 49  0  0  1  0  0  0  0  0999 V2000
   29.1480   30.1130   22.9060 N   0  0  0  0  0  0  0  0  0  0  0  0
   28.6930   28.7740   22.8080 C   0  0  0  0  0  0  0  0  0  0  0  0
   27.8740   28.4230   21.9060 O   0  0  0  0  0  0  0  0  0  0  0  0
   29.8200   30.3610   23.6570 H   0  0  0  0  0  0  0  0  0  0  0  0
   28.6990   31.1370   21.9940 C   0  0  0  0  0  0  0  0  0  0  0  0
   29.7230   31.5210   20.9610 C   0  0  2  0  0  0  0  0  0  0  0  0
   29.4470   30.8200   19.6300 C   0  0  1  0  0  0  0  0  0  0  0  0
   30.3270   31.4120   18.5430 C   0  0  2  0  0  0  0  0  0  0  0  0
   30.9830   33.5690   17.9340 C   0  0  2  0  0  0  0  0  0  0  0  0
   31.3520   33.0670   16.5660 C   0  0  0  0  0  0  0  0  0  0  0  0
   30.9130   32.5840   18.8940 O   0  0  0  0  0  0  0  0  0  0  0  0
   30.7520   31.7590   16.1910 C   0  0  1  0  0  0  0  0  0  0  0  0
   29.6370   31.4590   17.2050 C   0  0  1  0  0  0  0  0  0  0  0  0
   29.8070   34.3030   17.8310 O   0  0  0  0  0  0  0  0  0  0  0  0
   30.0860   35.2600   17.8150 H   0  0  0  0  0  0  0  0  0  0  0  0
   32.0600   34.4970   18.3480 C   0  0  0  0  0  0  0  0  0  0  0  0
   32.6570   35.2610   17.5590 O   0  0  0  0  0  0  0  0  0  0  0  0
   32.4410   34.5370   19.6770 O   0  0  0  0  0  0  0  0  0  0  0  0
   32.9360   35.3150   20.0940 H   0  0  0  0  0  0  0  0  0  0  0  0
   30.2490   31.7360   14.8940 O   0  0  0  0  0  0  0  0  0  0  0  0
   29.2890   31.4710   14.8670 H   0  0  0  0  0  0  0  0  0  0  0  0
   28.9930   30.1990   16.8870 N   0  0  0  0  0  0  0  0  0  0  0  0
   27.5750   30.0870   16.9170 C   0  0  0  0  0  0  0  0  0  0  0  0
   29.5370   29.3420   16.6310 H   0  0  0  0  0  0  0  0  0  0  0  0
   26.8650   28.8030   16.5950 C   0  0  0  0  0  0  0  0  0  0  0  0
   26.8610   31.0950   17.2230 O   0  0  0  0  0  0  0  0  0  0  0  0
   29.7570   29.4710   19.7820 O   0  0  0  0  0  0  0  0  0  0  0  0
   29.0150   28.9560   20.2010 H   0  0  0  0  0  0  0  0  0  0  0  0
   30.9720   31.1410   21.4590 O   0  0  0  0  0  0  0  0  0  0  0  0
   31.0130   30.1530   21.4920 H   0  0  0  0  0  0  0  0  0  0  0  0
   29.1540   27.8410   23.7080 O   0  0  0  0  0  0  0  0  0  0  0  0
   30.2400   26.9700   23.4430 C   0  0  0  0  0  0  0  0  0  0  0  0
   31.3690   27.7310   22.8090 C   0  0  0  0  0  0  0  0  0  0  0  0
   32.4870   28.2210   23.4310 C   0  0  0  0  0  0  0  0  0  0  0  0
   31.4480   28.0580   21.5040 N   0  0  0  0  0  0  0  0  0  0  0  0
   33.2300   28.8420   22.4820 N   0  0  0  0  0  0  0  0  0  0  0  0
   32.5770   28.7260   21.3340 N   0  0  0  0  0  0  0  0  0  0  0  0
   34.4980   29.4910   22.7410 C   0  0  0  0  0  0  0  0  0  0  0  0
   34.2030   30.9050   23.2340 C   0  0  0  0  0  0  0  0  0  0  0  0
   34.3980   31.8130   22.0640 C   0  0  0  0  0  0  0  0  0  0  0  0
   33.4850   32.4870   21.5700 O   0  0  0  0  0  0  0  0  0  0  0  0
   35.6870   31.8760   21.5330 O   0  0  0  0  0  0  0  0  0  0  0  0
   36.0780   31.0600   21.0640 H   0  0  0  0  0  0  0  0  0  0  0  0
   29.8670   25.5550   16.9770 C   0  0  0  0  0  0  0  0  0  0  0  0
   28.3450   25.7220   17.0260 C   0  0  0  0  0  0  0  0  0  0  0  0
   27.6010   24.4020   16.8910 C   0  0  0  0  0  0  0  0  0  0  0  0
   26.1620   24.5180   17.3100 C   0  0  0  0  0  0  0  0  0  0  0  0
   25.8980   23.5840   18.4860 C   0  0  0  0  0  0  0  0  0  0  0  0
   25.5240   24.3610   19.6920 N   0  0  0  0  0  0  0  0  0  0  0  0
  1  4  1  0  0  0  0
  2  1  1  0  0  0  0
  2 31  1  0  0  0  0
  3  2  2  0  0  0  0
  5  1  1  0  0  0  0
  6 29  1  0  0  0  0
  6  5  1  1  0  0  0
  7 27  1  1  0  0  0
  7  6  1  0  0  0  0
  8 11  1  0  0  0  0
  8  7  1  1  0  0  0
  9 14  1  6  0  0  0
  9 16  1  0  0  0  0
  9 11  1  0  0  0  0
 10  9  1  0  0  0  0
 12 20  1  6  0  0  0
 12 10  1  0  0  0  0
 12 13  1  0  0  0  0
 13 22  1  6  0  0  0
 13  8  1  0  0  0  0
 15 14  1  0  0  0  0
 16 18  1  0  0  0  0
 17 16  2  0  0  0  0
 18 19  1  0  0  0  0
 21 20  1  0  0  0  0
 22 23  1  0  0  0  0
 23 26  2  0  0  0  0
 24 22  1  0  0  0  0
 25 23  1  0  0  0  0
 27 28  1  0  0  0  0
 29 30  1  0  0  0  0
 32 31  1  0  0  0  0
 33 34  2  0  0  0  0
 33 32  1  0  0  0  0
 35 33  1  0  0  0  0
 36 38  1  0  0  0  0
 36 34  1  0  0  0  0
 37 35  2  0  0  0  0
 37 36  1  0  0  0  0
 38 39  1  0  0  0  0
 40 39  1  0  0  0  0
 41 40  2  0  0  0  0
 42 40  1  0  0  0  0
 43 42  1  0  0  0  0
 44 45  1  0  0  0  0
 46 45  1  0  0  0  0
 46 47  1  0  0  0  0
 47 48  1  0  0  0  0
 48 49  1  0  0  0  0
M  END
>  <REMARK>
 VINA RESULT:    -4.291      1.898      6.775
 INTER + INTRA:         -13.698
 INTER:                  -6.791
 INTRA:                  -6.906
 UNBOUND:                -5.644
 SMILES CC(=O)N[C@@H]1[C@@H](O)C[C@](O)(C(=O)O)O[C@H]1C(O)[C@H](O)CNC(=O)OCc1cn(CCC(=O)O)nn1
 SMILES IDX 21 1 22 2 23 3 20 5 18 6 16 7 15 8 9 9 8 10 14 11 6 12 5 13
 SMILES IDX 10 14 11 16 12 17 13 18 7 20 4 22 2 23 1 25 3 26 17 27 19 29
 SMILES IDX 24 31 25 32 26 33 27 34 35 35 28 36 34 37 29 38 30 39 31 40
 SMILES IDX 32 41 33 42
 H PARENT 21 4 10 15 13 19 7 21 4 24 17 28 19 30 33 43
 Flexibility Score: inf
  4 active torsions:
  status: ('A' for Active; 'I' for Inactive)
    1  A    between atoms: CA   and  CB  
    2  A    between atoms: CB   and  CG  
    3  A    between atoms: CG   and  CD  
    4  A    between atoms: CD   and  CE  

>  <TORSDO>
F 18

>  <BEGIN_>
RES LYS A 131

$$$$
ligand_32_pose_11_2HRL.pdbqt
 OpenBabel07062320523D

  6  5  0  0  0  0  0  0  0  0999 V2000
   33.1930   34.6630    9.2900 C   0  0  0  0  0  0  0  0  0  0  0  0
   32.0600   35.3600   10.0340 C   0  0  0  0  0  0  0  0  0  0  0  0
   30.8140   35.5370    9.2050 C   0  0  0  0  0  0  0  0  0  0  0  0
   30.1350   34.1970    8.9650 C   0  0  0  0  0  0  0  0  0  0  0  0
   28.7440   34.4000    8.3950 C   0  0  0  0  0  0  0  0  0  0  0  0
   28.7610   35.3830    7.2760 N   0  0  0  0  0  0  0  0  0  0  0  0
  1  2  1  0  0  0  0
  3  2  1  0  0  0  0
  4  3  1  0  0  0  0
  5  4  1  0  0  0  0
  6  5  1  0  0  0  0
M  END
>  <EGIN_R>
ES LYS A 135

>  <REMARK>
  4 active torsions:
  status: ('A' for Active; 'I' for Inactive)
    5  A    between atoms: CA   and  CB  
    6  A    between atoms: CB   and  CG  
    7  A    between atoms: CG   and  CD  
    8  A    between atoms: CD   and  CE  

$$$$
