ligand_72_pose_13_2HRL.pdbqt
 OpenBabel07062320523D

 49 49  0  0  1  0  0  0  0  0999 V2000
   26.1240   33.3160   15.6770 N   0  0  0  0  0  0  0  0  0  0  0  0
   25.6890   34.3220   14.7550 C   0  0  0  0  0  0  0  0  0  0  0  0
   24.6930   34.1260   13.9790 O   0  0  0  0  0  0  0  0  0  0  0  0
   26.9310   33.5310   16.2930 H   0  0  0  0  0  0  0  0  0  0  0  0
   25.4230   32.0510   15.7360 C   0  0  0  0  0  0  0  0  0  0  0  0
   25.8910   31.1770   16.8320 C   0  0  2  0  0  0  0  0  0  0  0  0
   26.2710   29.7820   16.5060 C   0  0  1  0  0  0  0  0  0  0  0  0
   27.5890   29.4050   17.1350 C   0  0  2  0  0  0  0  0  0  0  0  0
   26.9580   28.5860   19.2620 C   0  0  2  0  0  0  0  0  0  0  0  0
   27.6200   29.8150   19.9120 C   0  0  0  0  0  0  0  0  0  0  0  0
   27.4140   28.3500   18.0050 O   0  0  0  0  0  0  0  0  0  0  0  0
   28.8510   30.0730   19.1090 C   0  0  1  0  0  0  0  0  0  0  0  0
   28.3630   30.5510   17.7120 C   0  0  1  0  0  0  0  0  0  0  0  0
   25.5900   28.6960   19.4060 O   0  0  0  0  0  0  0  0  0  0  0  0
   25.3300   29.6470   19.4330 H   0  0  0  0  0  0  0  0  0  0  0  0
   27.3880   27.3870   20.0830 C   0  0  0  0  0  0  0  0  0  0  0  0
   26.7360   27.0340   21.0940 O   0  0  0  0  0  0  0  0  0  0  0  0
   28.5150   26.7010   19.6850 O   0  0  0  0  0  0  0  0  0  0  0  0
   28.7800   26.6370   18.7080 H   0  0  0  0  0  0  0  0  0  0  0  0
   29.6910   31.0190   19.6630 O   0  0  0  0  0  0  0  0  0  0  0  0
   29.7610   30.8110   20.6310 H   0  0  0  0  0  0  0  0  0  0  0  0
   29.6370   30.7930   17.0170 N   0  0  0  0  0  0  0  0  0  0  0  0
   29.8950   31.9410   16.2590 C   0  0  0  0  0  0  0  0  0  0  0  0
   30.3670   30.0570   17.1110 H   0  0  0  0  0  0  0  0  0  0  0  0
   31.1710   32.2030   15.5460 C   0  0  0  0  0  0  0  0  0  0  0  0
   28.9910   32.8170   16.1680 O   0  0  0  0  0  0  0  0  0  0  0  0
   25.3080   28.8290   16.4890 O   0  0  0  0  0  0  0  0  0  0  0  0
   24.4990   29.0590   15.9620 H   0  0  0  0  0  0  0  0  0  0  0  0
   24.9100   31.1400   17.8500 O   0  0  0  0  0  0  0  0  0  0  0  0
   24.3230   31.9180   17.7260 H   0  0  0  0  0  0  0  0  0  0  0  0
   26.3720   35.5100   14.7210 O   0  0  0  0  0  0  0  0  0  0  0  0
   26.9230   36.0490   13.5560 C   0  0  0  0  0  0  0  0  0  0  0  0
   28.3360   35.6240   13.3800 C   0  0  0  0  0  0  0  0  0  0  0  0
   29.4260   36.4200   13.6300 C   0  0  0  0  0  0  0  0  0  0  0  0
   28.8130   34.4500   12.9650 N   0  0  0  0  0  0  0  0  0  0  0  0
   30.5320   35.7190   13.3650 N   0  0  0  0  0  0  0  0  0  0  0  0
   30.1250   34.5140   12.9600 N   0  0  0  0  0  0  0  0  0  0  0  0
   31.8830   36.2000   13.5010 C   0  0  0  0  0  0  0  0  0  0  0  0
   31.9690   37.2630   14.5760 C   0  0  0  0  0  0  0  0  0  0  0  0
   32.3330   36.7700   12.1620 C   0  0  0  0  0  0  0  0  0  0  0  0
   32.8030   35.0490   13.8160 C   0  0  0  0  0  0  0  0  0  0  0  0
   33.6630   34.8150   12.7390 O   0  0  0  0  0  0  0  0  0  0  0  0
   33.5160   33.8890   12.4160 H   0  0  0  0  0  0  0  0  0  0  0  0
   29.8670   25.5550   16.9770 C   0  0  0  0  0  0  0  0  0  0  0  0
   28.3450   25.7220   17.0260 C   0  0  0  0  0  0  0  0  0  0  0  0
   27.6010   24.4010   16.9050 C   0  0  0  0  0  0  0  0  0  0  0  0
   26.5810   24.2240   17.9950 C   0  0  0  0  0  0  0  0  0  0  0  0
   25.3660   25.0990   17.7020 C   0  0  0  0  0  0  0  0  0  0  0  0
   24.5970   25.3520   18.9430 N   0  0  0  0  0  0  0  0  0  0  0  0
  1  5  1  0  0  0  0
  1  4  1  0  0  0  0
  2  1  1  0  0  0  0
  3  2  2  0  0  0  0
  6  5  1  6  0  0  0
  6 29  1  0  0  0  0
  7 27  1  1  0  0  0
  7  6  1  0  0  0  0
  8  7  1  1  0  0  0
  8 13  1  0  0  0  0
  8 11  1  0  0  0  0
  9 14  1  1  0  0  0
  9 10  1  0  0  0  0
  9 16  1  0  0  0  0
 11  9  1  0  0  0  0
 12 20  1  1  0  0  0
 12 10  1  0  0  0  0
 13 22  1  6  0  0  0
 13 12  1  0  0  0  0
 14 15  1  0  0  0  0
 16 17  2  0  0  0  0
 18 16  1  0  0  0  0
 19 18  1  0  0  0  0
 20 21  1  0  0  0  0
 22 24  1  0  0  0  0
 23 22  1  0  0  0  0
 25 23  1  0  0  0  0
 26 23  2  0  0  0  0
 28 27  1  0  0  0  0
 30 29  1  0  0  0  0
 31  2  1  0  0  0  0
 32 31  1  0  0  0  0
 33 32  1  0  0  0  0
 33 34  2  0  0  0  0
 35 33  1  0  0  0  0
 36 38  1  0  0  0  0
 36 34  1  0  0  0  0
 37 35  2  0  0  0  0
 37 36  1  0  0  0  0
 38 41  1  0  0  0  0
 38 39  1  0  0  0  0
 40 38  1  0  0  0  0
 42 41  1  0  0  0  0
 43 42  1  0  0  0  0
 44 45  1  0  0  0  0
 46 45  1  0  0  0  0
 46 47  1  0  0  0  0
 48 47  1  0  0  0  0
 48 49  1  0  0  0  0
M  END
>  <REMARK>
 VINA RESULT:    -4.274      6.201     10.785
 INTER + INTRA:         -13.917
 INTER:                  -8.571
 INTRA:                  -5.346
 UNBOUND:                -6.145
 SMILES CC(=O)N[C@@H]1[C@@H](O)C[C@](O)(C(=O)O)O[C@H]1C(O)[C@H](O)CNC(=O)OCc1cn(C(C)(C)CO)nn1
 SMILES IDX 21 1 22 2 23 3 20 5 18 6 16 7 15 8 9 9 8 10 14 11 6 12 5 13
 SMILES IDX 10 14 11 16 12 17 13 18 7 20 4 22 2 23 1 25 3 26 17 27 19 29
 SMILES IDX 24 31 25 32 26 33 27 34 35 35 28 36 34 37 29 38 30 39 31 40
 SMILES IDX 32 41 33 42
 H PARENT 21 4 10 15 13 19 7 21 4 24 17 28 19 30 33 43
 Flexibility Score: inf
  4 active torsions:
  status: ('A' for Active; 'I' for Inactive)
    1  A    between atoms: CA   and  CB  
    2  A    between atoms: CB   and  CG  
    3  A    between atoms: CG   and  CD  
    4  A    between atoms: CD   and  CE  

>  <TORSDO>
F 17

>  <BEGIN_>
RES LYS A 131

$$$$
ligand_72_pose_13_2HRL.pdbqt
 OpenBabel07062320523D

  6  5  0  0  0  0  0  0  0  0999 V2000
   33.1930   34.6630    9.2900 C   0  0  0  0  0  0  0  0  0  0  0  0
   32.0600   35.3600   10.0340 C   0  0  0  0  0  0  0  0  0  0  0  0
   30.7880   35.4640    9.2330 C   0  0  0  0  0  0  0  0  0  0  0  0
   30.1960   34.0850    8.9840 C   0  0  0  0  0  0  0  0  0  0  0  0
   28.7190   34.0680    9.3280 C   0  0  0  0  0  0  0  0  0  0  0  0
   27.9040   34.6360    8.2190 N   0  0  0  0  0  0  0  0  0  0  0  0
  1  2  1  0  0  0  0
  3  2  1  0  0  0  0
  4  3  1  0  0  0  0
  4  5  1  0  0  0  0
  6  5  1  0  0  0  0
M  END
>  <EGIN_R>
ES LYS A 135

>  <REMARK>
  4 active torsions:
  status: ('A' for Active; 'I' for Inactive)
    5  A    between atoms: CA   and  CB  
    6  A    between atoms: CB   and  CG  
    7  A    between atoms: CG   and  CD  
    8  A    between atoms: CD   and  CE  

$$$$
