ligand_76_pose_16_2HRL.pdbqt
 OpenBabel07062320523D

 55 56  0  0  1  0  0  0  0  0999 V2000
   30.5060   32.3710   19.4800 O   0  0  0  0  0  0  0  0  0  0  0  0
   30.6110   33.1520   18.3430 C   0  0  0  0  0  0  0  0  0  0  0  0
   31.1780   32.6330   17.1610 N   0  0  0  0  0  0  0  0  0  0  0  0
   31.5190   31.6540   17.1510 H   0  0  0  0  0  0  0  0  0  0  0  0
   30.2000   34.3350   18.3570 O   0  0  0  0  0  0  0  0  0  0  0  0
   31.3060   33.4210   15.9430 C   0  0  0  0  0  0  0  0  0  0  0  0
   30.5240   32.7890   14.8060 C   0  0  2  0  0  0  0  0  0  0  0  0
   30.1420   33.8870   13.8280 C   0  0  1  0  0  0  0  0  0  0  0  0
   29.4730   35.0470   14.5710 C   0  0  2  0  0  0  0  0  0  0  0  0
   27.2530   35.2850   13.8890 C   0  0  2  0  0  0  0  0  0  0  0  0
   27.7860   35.9960   12.6950 C   0  0  0  0  0  0  0  0  0  0  0  0
   28.1560   34.8640   14.7990 O   0  0  0  0  0  0  0  0  0  0  0  0
   28.9010   36.9330   12.9940 C   0  0  1  0  0  0  0  0  0  0  0  0
   29.8980   36.3450   13.9560 C   0  0  1  0  0  0  0  0  0  0  0  0
   26.5500   34.1510   13.4150 O   0  0  0  0  0  0  0  0  0  0  0  0
   25.6300   34.1580   13.7840 H   0  0  0  0  0  0  0  0  0  0  0  0
   26.2080   36.1710   14.5180 C   0  0  0  0  0  0  0  0  0  0  0  0
   25.0310   36.2400   14.0940 O   0  0  0  0  0  0  0  0  0  0  0  0
   26.5120   36.9700   15.6240 O   0  0  0  0  0  0  0  0  0  0  0  0
   27.4310   37.4290   15.6930 H   0  0  0  0  0  0  0  0  0  0  0  0
   29.5110   37.3050   11.7740 O   0  0  0  0  0  0  0  0  0  0  0  0
   29.0930   38.1450   11.4180 H   0  0  0  0  0  0  0  0  0  0  0  0
   30.2680   37.3080   14.9960 N   0  0  0  0  0  0  0  0  0  0  0  0
   31.5940   37.4590   15.4250 C   0  0  0  0  0  0  0  0  0  0  0  0
   29.4730   37.8830   15.4050 H   0  0  0  0  0  0  0  0  0  0  0  0
   31.9170   38.4400   16.4760 C   0  0  0  0  0  0  0  0  0  0  0  0
   32.5040   36.7690   14.9270 O   0  0  0  0  0  0  0  0  0  0  0  0
   31.3610   34.4130   13.3660 O   0  0  0  0  0  0  0  0  0  0  0  0
   32.1450   33.9670   13.8060 H   0  0  0  0  0  0  0  0  0  0  0  0
   29.3830   32.1680   15.2990 O   0  0  0  0  0  0  0  0  0  0  0  0
   28.7030   32.8710   15.4360 H   0  0  0  0  0  0  0  0  0  0  0  0
   29.1710   32.0240   19.8860 C   0  0  0  0  0  0  0  0  0  0  0  0
   28.4670   31.3350   18.7830 C   0  0  0  0  0  0  0  0  0  0  0  0
   27.1440   31.4020   18.4150 C   0  0  0  0  0  0  0  0  0  0  0  0
   29.0550   30.4880   17.9190 N   0  0  0  0  0  0  0  0  0  0  0  0
   26.9630   30.6050   17.3520 N   0  0  0  0  0  0  0  0  0  0  0  0
   28.1080   30.0700   17.0690 N   0  0  0  0  0  0  0  0  0  0  0  0
   25.7060   30.3560   16.6120 C   0  0  0  0  0  0  0  0  0  0  0  0
   25.7720   31.0990   15.3140 C   0  0  2  0  0  0  0  0  0  0  0  0
   26.6540   32.1870   15.3790 O   0  0  0  0  0  0  0  0  0  0  0  0
   27.2360   32.1410   14.5670 H   0  0  0  0  0  0  0  0  0  0  0  0
   24.5420   31.2730   14.5750 C   0  0  0  0  0  0  0  0  0  0  0  0
   24.4060   30.6770   13.2410 C   0  0  0  0  0  0  0  0  0  0  0  0
   23.0440   30.3930   12.8190 C   0  0  0  0  0  0  0  0  0  0  0  0
   22.1340   31.4560   12.7680 C   0  0  0  0  0  0  0  0  0  0  0  0
   22.5420   29.1620   12.5290 C   0  0  0  0  0  0  0  0  0  0  0  0
   20.8140   31.2470   12.4430 C   0  0  0  0  0  0  0  0  0  0  0  0
   21.2190   28.9320   12.1990 C   0  0  0  0  0  0  0  0  0  0  0  0
   20.3350   29.9900   12.1550 C   0  0  0  0  0  0  0  0  0  0  0  0
   29.8670   25.5550   16.9770 C   0  0  0  0  0  0  0  0  0  0  0  0
   28.3450   25.7220   17.0260 C   0  0  0  0  0  0  0  0  0  0  0  0
   27.6020   24.4000   16.9160 C   0  0  0  0  0  0  0  0  0  0  0  0
   26.1650   24.5200   17.3430 C   0  0  0  0  0  0  0  0  0  0  0  0
   25.8900   23.5460   18.4840 C   0  0  0  0  0  0  0  0  0  0  0  0
   25.4630   24.2780   19.7000 N   0  0  0  0  0  0  0  0  0  0  0  0
  1 32  1  0  0  0  0
  2  5  2  0  0  0  0
  2  1  1  0  0  0  0
  3  2  1  0  0  0  0
  4  3  1  0  0  0  0
  6  3  1  0  0  0  0
  7 30  1  0  0  0  0
  7  6  1  1  0  0  0
  8 28  1  1  0  0  0
  8  7  1  0  0  0  0
  9  8  1  6  0  0  0
  9 12  1  0  0  0  0
 10 15  1  6  0  0  0
 10 17  1  0  0  0  0
 10 12  1  0  0  0  0
 11 13  1  0  0  0  0
 11 10  1  0  0  0  0
 13 21  1  6  0  0  0
 13 14  1  0  0  0  0
 14  9  1  0  0  0  0
 14 23  1  1  0  0  0
 15 16  1  0  0  0  0
 17 19  1  0  0  0  0
 18 17  2  0  0  0  0
 19 20  1  0  0  0  0
 22 21  1  0  0  0  0
 23 25  1  0  0  0  0
 23 24  1  0  0  0  0
 24 26  1  0  0  0  0
 27 24  2  0  0  0  0
 28 29  1  0  0  0  0
 30 31  1  0  0  0  0
 33 32  1  0  0  0  0
 34 33  2  0  0  0  0
 35 33  1  0  0  0  0
 36 34  1  0  0  0  0
 37 36  1  0  0  0  0
 37 35  2  0  0  0  0
 38 36  1  0  0  0  0
 39 42  1  1  0  0  0
 39 40  1  0  0  0  0
 39 38  1  0  0  0  0
 41 40  1  0  0  0  0
 43 42  1  0  0  0  0
 44 43  1  0  0  0  0
 45 44  1  0  0  0  0
 46 44  2  0  0  0  0
 47 45  2  0  0  0  0
 48 46  1  0  0  0  0
 49 48  2  0  0  0  0
 49 47  1  0  0  0  0
 50 51  1  0  0  0  0
 52 51  1  0  0  0  0
 52 53  1  0  0  0  0
 53 54  1  0  0  0  0
 54 55  1  0  0  0  0
M  END
>  <REMARK>
 VINA RESULT:    -4.752      4.955      9.214
 INTER + INTRA:         -16.245
 INTER:                  -8.926
 INTRA:                  -7.320
 UNBOUND:                -6.771
 SMILES CC(=O)N[C@@H]1[C@@H](O)C[C@](O)(C(=O)O)O[C@H]1C(O)[C@H](O)CNC(=O)OCc1cn(CC(O)CCc2ccccc2)nn1
 SMILES IDX 24 1 22 2 21 3 23 5 20 6 18 7 16 8 15 9 9 10 8 11 14 12 6 13
 SMILES IDX 5 14 10 15 11 17 12 18 13 19 7 21 4 23 2 24 1 26 3 27 17 28
 SMILES IDX 19 30 25 32 26 33 27 34 41 35 28 36 40 37 29 38 30 39 31 40
 SMILES IDX 32 42 33 43 34 44 35 45 39 46 36 47 38 48 37 49
 H PARENT 21 4 10 16 13 20 7 22 4 25 17 29 19 31 31 41
 Flexibility Score: inf
  4 active torsions:
  status: ('A' for Active; 'I' for Inactive)
    1  A    between atoms: CA   and  CB  
    2  A    between atoms: CB   and  CG  
    3  A    between atoms: CG   and  CD  
    4  A    between atoms: CD   and  CE  

>  <TORSDO>
F 20

>  <BEGIN_>
RES LYS A 131

$$$$
ligand_76_pose_16_2HRL.pdbqt
 OpenBabel07062320523D

  6  5  0  0  0  0  0  0  0  0999 V2000
   33.1930   34.6630    9.2900 C   0  0  0  0  0  0  0  0  0  0  0  0
   32.0600   35.3600   10.0340 C   0  0  0  0  0  0  0  0  0  0  0  0
   30.7310   34.6620    9.8980 C   0  0  0  0  0  0  0  0  0  0  0  0
   30.3360   34.5400    8.4350 C   0  0  0  0  0  0  0  0  0  0  0  0
   28.8270   34.5810    8.2850 C   0  0  0  0  0  0  0  0  0  0  0  0
   28.1570   33.8670    9.4070 N   0  0  0  0  0  0  0  0  0  0  0  0
  1  2  1  0  0  0  0
  3  2  1  0  0  0  0
  4  3  1  0  0  0  0
  5  4  1  0  0  0  0
  5  6  1  0  0  0  0
M  END
>  <EGIN_R>
ES LYS A 135

>  <REMARK>
  4 active torsions:
  status: ('A' for Active; 'I' for Inactive)
    5  A    between atoms: CA   and  CB  
    6  A    between atoms: CB   and  CG  
    7  A    between atoms: CG   and  CD  
    8  A    between atoms: CD   and  CE  

$$$$
