ligand_73_pose_8_2HRL.pdbqt
 OpenBabel07062320523D

 54 55  0  0  1  0  0  0  0  0999 V2000
   25.7370   35.0390   12.2660 N   0  0  0  0  0  0  0  0  0  0  0  0
   24.4770   34.4170   12.0580 C   0  0  0  0  0  0  0  0  0  0  0  0
   24.1000   33.4150   12.7540 O   0  0  0  0  0  0  0  0  0  0  0  0
   26.0020   35.8510   11.6860 H   0  0  0  0  0  0  0  0  0  0  0  0
   26.6090   34.5300   13.2830 C   0  0  0  0  0  0  0  0  0  0  0  0
   28.0520   34.8650   13.1530 C   0  0  2  0  0  0  0  0  0  0  0  0
   28.9340   34.3890   14.2780 C   0  0  1  0  0  0  0  0  0  0  0  0
   30.3490   34.8720   14.2070 C   0  0  2  0  0  0  0  0  0  0  0  0
   31.9070   35.9630   12.9200 C   0  0  2  0  0  0  0  0  0  0  0  0
   32.5810   36.0200   14.2730 C   0  0  0  0  0  0  0  0  0  0  0  0
   30.6680   35.3490   12.9460 O   0  0  0  0  0  0  0  0  0  0  0  0
   32.7130   34.6380   14.8180 C   0  0  1  0  0  0  0  0  0  0  0  0
   31.3410   33.9550   14.8200 C   0  0  1  0  0  0  0  0  0  0  0  0
   32.7490   35.2500   12.0790 O   0  0  0  0  0  0  0  0  0  0  0  0
   32.7070   35.6900   11.1870 H   0  0  0  0  0  0  0  0  0  0  0  0
   31.8110   37.3550   12.4160 C   0  0  0  0  0  0  0  0  0  0  0  0
   31.2780   38.2650   13.1040 O   0  0  0  0  0  0  0  0  0  0  0  0
   32.3090   37.6840   11.1700 O   0  0  0  0  0  0  0  0  0  0  0  0
   32.9500   37.1080   10.6560 H   0  0  0  0  0  0  0  0  0  0  0  0
   33.6200   33.9520   13.9870 O   0  0  0  0  0  0  0  0  0  0  0  0
   33.7180   33.0360   14.3890 H   0  0  0  0  0  0  0  0  0  0  0  0
   30.9510   33.7880   16.2290 N   0  0  0  0  0  0  0  0  0  0  0  0
   30.7430   32.5250   16.8200 C   0  0  0  0  0  0  0  0  0  0  0  0
   30.8230   34.6480   16.8140 H   0  0  0  0  0  0  0  0  0  0  0  0
   30.3480   32.4000   18.2440 C   0  0  0  0  0  0  0  0  0  0  0  0
   30.8900   31.5000   16.1410 O   0  0  0  0  0  0  0  0  0  0  0  0
   28.4150   34.7580   15.5190 O   0  0  0  0  0  0  0  0  0  0  0  0
   27.5000   35.0830   15.4800 H   0  0  0  0  0  0  0  0  0  0  0  0
   28.1300   36.2620   13.0490 O   0  0  0  0  0  0  0  0  0  0  0  0
   29.0990   36.5070   13.0960 H   0  0  0  0  0  0  0  0  0  0  0  0
   23.6580   34.9220   11.0770 O   0  0  0  0  0  0  0  0  0  0  0  0
   23.4660   36.2990   10.9740 C   0  0  0  0  0  0  0  0  0  0  0  0
   24.1290   36.9030    9.7880 C   0  0  0  0  0  0  0  0  0  0  0  0
   25.4880   37.0190    9.5310 C   0  0  0  0  0  0  0  0  0  0  0  0
   23.5370   37.4630    8.7170 N   0  0  0  0  0  0  0  0  0  0  0  0
   25.6820   37.6260    8.3500 N   0  0  0  0  0  0  0  0  0  0  0  0
   24.4780   37.8870    7.8730 N   0  0  0  0  0  0  0  0  0  0  0  0
   26.9070   37.9460    7.7000 C   0  0  0  0  0  0  0  0  0  0  0  0
   27.0410   37.7510    6.3410 C   0  0  0  0  0  0  0  0  0  0  0  0
   27.9980   38.4560    8.3720 C   0  0  0  0  0  0  0  0  0  0  0  0
   28.2240   38.0560    5.6880 C   0  0  0  0  0  0  0  0  0  0  0  0
   29.2010   38.7750    7.7620 C   0  0  0  0  0  0  0  0  0  0  0  0
   29.2920   38.5630    6.3900 C   0  0  0  0  0  0  0  0  0  0  0  0
   30.3070   39.2960    8.4650 N   0  0  0  0  0  0  0  0  0  0  0  0
   30.1790   40.3330    9.1160 O   0  0  0  0  0  0  0  0  0  0  0  0
   31.5040   38.6540    8.4200 O   0  0  0  0  0  0  0  0  0  0  0  0
   30.5020   38.8840    5.7790 O   0  0  0  0  0  0  0  0  0  0  0  0
   31.3660   38.7600    6.3260 H   0  0  0  0  0  0  0  0  0  0  0  0
   29.8670   25.5550   16.9770 C   0  0  0  0  0  0  0  0  0  0  0  0
   28.3450   25.7220   17.0260 C   0  0  0  0  0  0  0  0  0  0  0  0
   27.5990   24.4390   16.6950 C   0  0  0  0  0  0  0  0  0  0  0  0
   27.1720   23.6970   17.9310 C   0  0  0  0  0  0  0  0  0  0  0  0
   25.6500   23.5930   17.9620 C   0  0  0  0  0  0  0  0  0  0  0  0
   25.0510   24.4370   16.9010 N   0  0  0  0  0  0  0  0  0  0  0  0
  1  5  1  0  0  0  0
  2  1  1  0  0  0  0
  2  3  2  0  0  0  0
  4  1  1  0  0  0  0
  6  5  1  1  0  0  0
  6  7  1  0  0  0  0
  7 27  1  1  0  0  0
  8  7  1  6  0  0  0
  8 13  1  0  0  0  0
  9 14  1  6  0  0  0
  9 11  1  0  0  0  0
  9 10  1  0  0  0  0
 10 12  1  0  0  0  0
 11  8  1  0  0  0  0
 12 20  1  6  0  0  0
 12 13  1  0  0  0  0
 13 22  1  1  0  0  0
 15 14  1  0  0  0  0
 16  9  1  0  0  0  0
 16 17  2  0  0  0  0
 18 16  1  0  0  0  0
 19 18  1  0  0  0  0
 20 21  1  0  0  0  0
 22 24  1  0  0  0  0
 22 23  1  0  0  0  0
 23 25  1  0  0  0  0
 26 23  2  0  0  0  0
 28 27  1  0  0  0  0
 29 30  1  0  0  0  0
 29  6  1  0  0  0  0
 31  2  1  0  0  0  0
 32 31  1  0  0  0  0
 33 32  1  0  0  0  0
 34 33  2  0  0  0  0
 35 33  1  0  0  0  0
 36 34  1  0  0  0  0
 37 36  1  0  0  0  0
 37 35  2  0  0  0  0
 38 36  1  0  0  0  0
 38 40  2  0  0  0  0
 39 38  1  0  0  0  0
 41 39  2  0  0  0  0
 41 43  1  0  0  0  0
 42 40  1  0  0  0  0
 42 44  1  0  0  0  0
 43 42  2  0  0  0  0
 44 45  2  0  0  0  0
 46 44  2  0  0  0  0
 47 48  1  0  0  0  0
 47 43  1  0  0  0  0
 49 50  1  0  0  0  0
 51 50  1  0  0  0  0
 51 52  1  0  0  0  0
 52 53  1  0  0  0  0
 54 53  1  0  0  0  0
M  END
>  <REMARK>
 VINA RESULT:    -4.084      3.859      8.823
 INTER + INTRA:         -14.737
 INTER:                  -9.469
 INTRA:                  -5.268
 UNBOUND:                -7.311
 SMILES CC(=O)N[C@@H]1[C@@H](O)C[C@](O)(C(=O)O)O[C@H]1C(O)[C@H](O)CNC(=O)OCc1cn(-c2ccc(O)c([N+](=O)[O-])c2)nn1
 SMILES IDX 21 1 22 2 23 3 20 5 18 6 16 7 15 8 9 9 8 10 14 11 6 12 5 13
 SMILES IDX 10 14 11 16 12 17 13 18 7 20 4 22 2 23 1 25 3 26 17 27 19 29
 SMILES IDX 24 31 25 32 26 33 27 34 40 35 28 36 39 37 29 38 30 39 38 40
 SMILES IDX 31 41 34 42 32 43 35 44 36 45 37 46 33 47
 H PARENT 21 4 10 15 13 19 7 21 4 24 17 28 19 30 33 48
 Flexibility Score: inf
  4 active torsions:
  status: ('A' for Active; 'I' for Inactive)
    1  A    between atoms: CA   and  CB  
    2  A    between atoms: CB   and  CG  
    3  A    between atoms: CG   and  CD  
    4  A    between atoms: CD   and  CE  

>  <TORSDO>
F 17

>  <BEGIN_>
RES LYS A 131

$$$$
ligand_73_pose_8_2HRL.pdbqt
 OpenBabel07062320523D

  6  5  0  0  0  0  0  0  0  0999 V2000
   33.1930   34.6630    9.2900 C   0  0  0  0  0  0  0  0  0  0  0  0
   32.0600   35.3600   10.0340 C   0  0  0  0  0  0  0  0  0  0  0  0
   30.7540   35.3570    9.2820 C   0  0  0  0  0  0  0  0  0  0  0  0
   30.0140   34.0460    9.4980 C   0  0  0  0  0  0  0  0  0  0  0  0
   28.5660   34.1740    9.0640 C   0  0  0  0  0  0  0  0  0  0  0  0
   28.4610   34.8470    7.7400 N   0  0  0  0  0  0  0  0  0  0  0  0
  1  2  1  0  0  0  0
  3  4  1  0  0  0  0
  3  2  1  0  0  0  0
  5  4  1  0  0  0  0
  6  5  1  0  0  0  0
M  END
>  <EGIN_R>
ES LYS A 135

>  <REMARK>
  4 active torsions:
  status: ('A' for Active; 'I' for Inactive)
    5  A    between atoms: CA   and  CB  
    6  A    between atoms: CB   and  CG  
    7  A    between atoms: CG   and  CD  
    8  A    between atoms: CD   and  CE  

$$$$
