ligand_29_pose_1_2HRL.pdbqt
 OpenBabel07062320523D

 54 55  0  0  1  0  0  0  0  0999 V2000
   28.3590   34.0730   15.0310 N   0  0  0  0  0  0  0  0  0  0  0  0
   29.6070   34.1660   14.4010 C   0  0  0  0  0  0  0  0  0  0  0  0
   29.7120   34.1470   13.1560 O   0  0  0  0  0  0  0  0  0  0  0  0
   28.3580   34.0860   16.0960 H   0  0  0  0  0  0  0  0  0  0  0  0
   27.0730   33.9620   14.3640 C   0  0  0  0  0  0  0  0  0  0  0  0
   26.0790   33.2860   15.2390 C   0  0  2  0  0  0  0  0  0  0  0  0
   26.5330   31.9550   15.7870 C   0  0  2  0  0  0  0  0  0  0  0  0
   25.4440   31.1090   16.3560 C   0  0  2  0  0  0  0  0  0  0  0  0
   26.5050   29.4420   17.5960 C   0  0  2  0  0  0  0  0  0  0  0  0
   25.4300   28.3900   17.3660 C   0  0  0  0  0  0  0  0  0  0  0  0
   25.8770   30.6580   17.6190 O   0  0  0  0  0  0  0  0  0  0  0  0
   24.3000   29.0040   16.5910 C   0  0  1  0  0  0  0  0  0  0  0  0
   24.8520   30.0390   15.5430 C   0  0  1  0  0  0  0  0  0  0  0  0
   27.5320   29.3250   16.6660 O   0  0  0  0  0  0  0  0  0  0  0  0
   27.7380   30.1850   16.2150 H   0  0  0  0  0  0  0  0  0  0  0  0
   27.1210   29.2190   18.9360 C   0  0  0  0  0  0  0  0  0  0  0  0
   26.4970   29.5920   19.9580 O   0  0  0  0  0  0  0  0  0  0  0  0
   28.3580   28.6160   19.1000 O   0  0  0  0  0  0  0  0  0  0  0  0
   29.0910   28.6660   18.3800 H   0  0  0  0  0  0  0  0  0  0  0  0
   23.5480   28.0540   15.9090 O   0  0  0  0  0  0  0  0  0  0  0  0
   22.9380   28.4720   15.2640 H   0  0  0  0  0  0  0  0  0  0  0  0
   23.6220   30.4810   14.8710 N   0  0  0  0  0  0  0  0  0  0  0  0
   23.4240   30.4300   13.4710 C   0  0  0  0  0  0  0  0  0  0  0  0
   22.8120   30.8650   15.4400 H   0  0  0  0  0  0  0  0  0  0  0  0
   22.1700   30.8860   12.8190 C   0  0  0  0  0  0  0  0  0  0  0  0
   24.3370   29.9830   12.7330 O   0  0  0  0  0  0  0  0  0  0  0  0
   27.3960   32.2500   16.9190 O   0  0  0  0  0  0  0  0  0  0  0  0
   27.0010   33.0280   17.3820 H   0  0  0  0  0  0  0  0  0  0  0  0
   24.7750   33.3230   14.8190 O   0  0  0  0  0  0  0  0  0  0  0  0
   24.1280   33.4970   15.5290 H   0  0  0  0  0  0  0  0  0  0  0  0
   30.7930   34.2850   15.1570 O   0  0  0  0  0  0  0  0  0  0  0  0
   31.5110   33.0780   15.4610 C   0  0  0  0  0  0  0  0  0  0  0  0
   30.9030   32.3610   16.5790 C   0  0  0  0  0  0  0  0  0  0  0  0
   30.7860   32.8070   17.8710 C   0  0  0  0  0  0  0  0  0  0  0  0
   30.3450   31.1410   16.5210 N   0  0  0  0  0  0  0  0  0  0  0  0
   30.1670   31.8600   18.5690 N   0  0  0  0  0  0  0  0  0  0  0  0
   29.9100   30.8670   17.7440 N   0  0  0  0  0  0  0  0  0  0  0  0
   29.8310   31.8860   19.9880 C   0  0  0  0  0  0  0  0  0  0  0  0
   30.9800   31.3080   20.7510 C   0  0  0  0  0  0  0  0  0  0  0  0
   31.0200   29.9350   20.9880 C   0  0  0  0  0  0  0  0  0  0  0  0
   32.0180   32.0790   21.2290 C   0  0  0  0  0  0  0  0  0  0  0  0
   32.0610   29.3630   21.6780 C   0  0  0  0  0  0  0  0  0  0  0  0
   33.0790   31.5340   21.9260 C   0  0  0  0  0  0  0  0  0  0  0  0
   33.0810   30.1750   22.1380 C   0  0  0  0  0  0  0  0  0  0  0  0
   32.1130   27.9940   21.9230 O   0  0  0  0  0  0  0  0  0  0  0  0
   31.6190   27.1130   20.9280 C   0  0  0  0  0  0  0  0  0  0  0  0
   34.1270   29.5890   22.8330 O   0  0  0  0  0  0  0  0  0  0  0  0
   35.4450   30.1000   22.7760 C   0  0  0  0  0  0  0  0  0  0  0  0
   29.8670   25.5550   16.9770 C   0  0  0  0  0  0  0  0  0  0  0  0
   28.3450   25.7220   17.0260 C   0  0  0  0  0  0  0  0  0  0  0  0
   27.5990   24.4330   16.7180 C   0  0  0  0  0  0  0  0  0  0  0  0
   26.9450   23.8510   17.9400 C   0  0  0  0  0  0  0  0  0  0  0  0
   26.2770   24.9650   18.7390 C   0  0  0  0  0  0  0  0  0  0  0  0
   25.3600   24.3960   19.7550 N   0  0  0  0  0  0  0  0  0  0  0  0
  1  4  1  0  0  0  0
  2  1  1  0  0  0  0
  2 31  1  0  0  0  0
  3  2  2  0  0  0  0
  5  1  1  0  0  0  0
  6  5  1  6  0  0  0
  6  7  1  0  0  0  0
  7 27  1  1  0  0  0
  8  7  1  6  0  0  0
  8 11  1  0  0  0  0
  9 14  1  6  0  0  0
  9 11  1  0  0  0  0
  9 16  1  0  0  0  0
 10  9  1  0  0  0  0
 12 20  1  6  0  0  0
 12 10  1  0  0  0  0
 13 22  1  1  0  0  0
 13  8  1  0  0  0  0
 13 12  1  0  0  0  0
 15 14  1  0  0  0  0
 16 18  1  0  0  0  0
 16 17  2  0  0  0  0
 19 18  1  0  0  0  0
 21 20  1  0  0  0  0
 22 24  1  0  0  0  0
 23 22  1  0  0  0  0
 25 23  1  0  0  0  0
 26 23  2  0  0  0  0
 27 28  1  0  0  0  0
 29  6  1  0  0  0  0
 29 30  1  0  0  0  0
 31 32  1  0  0  0  0
 32 33  1  0  0  0  0
 33 34  2  0  0  0  0
 34 36  1  0  0  0  0
 35 33  1  0  0  0  0
 35 37  2  0  0  0  0
 36 38  1  0  0  0  0
 37 36  1  0  0  0  0
 38 39  1  0  0  0  0
 39 40  2  0  0  0  0
 39 41  1  0  0  0  0
 40 42  1  0  0  0  0
 41 43  2  0  0  0  0
 42 45  1  0  0  0  0
 42 44  2  0  0  0  0
 43 44  1  0  0  0  0
 44 47  1  0  0  0  0
 46 45  1  0  0  0  0
 48 47  1  0  0  0  0
 49 50  1  0  0  0  0
 51 50  1  0  0  0  0
 51 52  1  0  0  0  0
 52 53  1  0  0  0  0
 53 54  1  0  0  0  0
M  END
>  <REMARK>
 VINA RESULT:    -5.307      3.024      6.760
 INTER + INTRA:         -15.234
 INTER:                  -8.538
 INTRA:                  -6.696
 UNBOUND:                -5.118
 SMILES COc1ccc(Cn2cc(COC(=O)NC[C@@H](O)C(O)[C@@H]3O[C@@](O)(C(=O)O)C[C@H](O)[C@H]3NC(C)=O)nn2)cc1OC
 SMILES IDX 15 1 13 2 14 3 16 5 17 6 19 7 21 8 23 9 28 10 22 11 29 12
 SMILES IDX 31 13 24 14 25 16 26 17 27 18 30 20 32 22 33 23 34 25 35 26
 SMILES IDX 20 27 18 29 12 31 11 32 10 33 9 34 36 35 8 36 37 37 7 38
 SMILES IDX 6 39 38 40 5 41 39 42 4 43 3 44 40 45 41 46 2 47 1 48
 H PARENT 15 4 24 15 27 19 30 21 32 24 20 28 18 30
 Flexibility Score: inf
  4 active torsions:
  status: ('A' for Active; 'I' for Inactive)
    1  A    between atoms: CA   and  CB  
    2  A    between atoms: CB   and  CG  
    3  A    between atoms: CG   and  CD  
    4  A    between atoms: CD   and  CE  

>  <TORSDO>
F 18

>  <BEGIN_>
RES LYS A 131

$$$$
ligand_29_pose_1_2HRL.pdbqt
 OpenBabel07062320523D

  6  5  0  0  0  0  0  0  0  0999 V2000
   33.1930   34.6630    9.2900 C   0  0  0  0  0  0  0  0  0  0  0  0
   32.0600   35.3600   10.0340 C   0  0  0  0  0  0  0  0  0  0  0  0
   30.8810   35.6950    9.1580 C   0  0  0  0  0  0  0  0  0  0  0  0
   30.4110   34.4660    8.3960 C   0  0  0  0  0  0  0  0  0  0  0  0
   28.8980   34.3670    8.4230 C   0  0  0  0  0  0  0  0  0  0  0  0
   28.4100   33.9900    9.7790 N   0  0  0  0  0  0  0  0  0  0  0  0
  1  2  1  0  0  0  0
  3  2  1  0  0  0  0
  4  5  1  0  0  0  0
  4  3  1  0  0  0  0
  5  6  1  0  0  0  0
M  END
>  <EGIN_R>
ES LYS A 135

>  <REMARK>
  4 active torsions:
  status: ('A' for Active; 'I' for Inactive)
    5  A    between atoms: CA   and  CB  
    6  A    between atoms: CB   and  CG  
    7  A    between atoms: CG   and  CD  
    8  A    between atoms: CD   and  CE  

$$$$
