ligand_21_pose_16_2HRL.pdbqt
 OpenBabel07062320523D

 54 55  0  0  1  0  0  0  0  0999 V2000
   27.3090   29.6500   18.3070 N   0  0  0  0  0  0  0  0  0  0  0  0
   27.3770   29.0660   17.0070 C   0  0  0  0  0  0  0  0  0  0  0  0
   27.0150   27.8780   16.8740 O   0  0  0  0  0  0  0  0  0  0  0  0
   27.6140   30.6380   18.4060 H   0  0  0  0  0  0  0  0  0  0  0  0
   26.8400   28.8910   19.4350 C   0  0  0  0  0  0  0  0  0  0  0  0
   28.0600   28.3410   20.1810 C   0  0  2  0  0  0  0  0  0  0  0  0
   29.0870   29.4320   20.3070 C   0  0  2  0  0  0  0  0  0  0  0  0
   30.1870   28.9690   21.2250 C   0  0  2  0  0  0  0  0  0  0  0  0
   30.6980   27.2750   22.7340 C   0  0  2  0  0  0  0  0  0  0  0  0
   30.6340   28.2270   23.9060 C   0  0  0  0  0  0  0  0  0  0  0  0
   29.8370   27.7750   21.7710 O   0  0  0  0  0  0  0  0  0  0  0  0
   31.1550   29.5520   23.4660 C   0  0  1  0  0  0  0  0  0  0  0  0
   30.5500   30.0480   22.1830 C   0  0  1  0  0  0  0  0  0  0  0  0
   30.1150   26.0750   23.1930 O   0  0  0  0  0  0  0  0  0  0  0  0
   30.7880   25.4660   23.5730 H   0  0  0  0  0  0  0  0  0  0  0  0
   32.0690   27.0250   22.2470 C   0  0  0  0  0  0  0  0  0  0  0  0
   33.0880   27.0390   22.9790 O   0  0  0  0  0  0  0  0  0  0  0  0
   32.2670   26.7560   20.9060 O   0  0  0  0  0  0  0  0  0  0  0  0
   31.5200   26.7680   20.2070 H   0  0  0  0  0  0  0  0  0  0  0  0
   30.8950   30.4650   24.5120 O   0  0  0  0  0  0  0  0  0  0  0  0
   30.1440   31.0640   24.2230 H   0  0  0  0  0  0  0  0  0  0  0  0
   31.5070   30.9310   21.5450 N   0  0  0  0  0  0  0  0  0  0  0  0
   31.4670   32.3470   21.7230 C   0  0  0  0  0  0  0  0  0  0  0  0
   32.2580   30.5470   20.9330 H   0  0  0  0  0  0  0  0  0  0  0  0
   32.4700   33.2020   21.0480 C   0  0  0  0  0  0  0  0  0  0  0  0
   30.5860   32.8550   22.4480 O   0  0  0  0  0  0  0  0  0  0  0  0
   28.5250   30.6200   20.7890 O   0  0  0  0  0  0  0  0  0  0  0  0
   28.5170   30.5870   21.7740 H   0  0  0  0  0  0  0  0  0  0  0  0
   28.4960   27.2340   19.4870 O   0  0  0  0  0  0  0  0  0  0  0  0
   29.0500   26.6220   20.0160 H   0  0  0  0  0  0  0  0  0  0  0  0
   27.8330   29.8150   15.9360 O   0  0  0  0  0  0  0  0  0  0  0  0
   27.5570   31.1910   15.8150 C   0  0  0  0  0  0  0  0  0  0  0  0
   28.8160   31.9420   15.9360 C   0  0  0  0  0  0  0  0  0  0  0  0
   28.9520   33.3300   16.0160 C   0  0  0  0  0  0  0  0  0  0  0  0
   30.0860   31.4660   15.9930 N   0  0  0  0  0  0  0  0  0  0  0  0
   30.2480   33.6000   16.1130 N   0  0  0  0  0  0  0  0  0  0  0  0
   30.9330   32.4700   16.0990 N   0  0  0  0  0  0  0  0  0  0  0  0
   30.8350   34.9200   16.2220 C   0  0  0  0  0  0  0  0  0  0  0  0
   31.7110   35.0890   15.0140 C   0  0  0  0  0  0  0  0  0  0  0  0
   31.1820   35.6910   13.9030 C   0  0  0  0  0  0  0  0  0  0  0  0
   33.0070   34.6420   15.0460 C   0  0  0  0  0  0  0  0  0  0  0  0
   31.9420   35.8660   12.7750 C   0  0  0  0  0  0  0  0  0  0  0  0
   33.7940   34.8140   13.9020 C   0  0  0  0  0  0  0  0  0  0  0  0
   33.2460   35.4170   12.8040 C   0  0  0  0  0  0  0  0  0  0  0  0
   29.8660   36.1290   13.9110 O   0  0  0  0  0  0  0  0  0  0  0  0
   29.0390   35.6980   12.8750 C   0  0  0  0  0  0  0  0  0  0  0  0
   28.7810   34.4770   12.7590 O   0  0  0  0  0  0  0  0  0  0  0  0
   28.4600   36.6650   11.9120 C   0  0  0  0  0  0  0  0  0  0  0  0
   29.8670   25.5550   16.9770 C   0  0  0  0  0  0  0  0  0  0  0  0
   28.3450   25.7220   17.0260 C   0  0  0  0  0  0  0  0  0  0  0  0
   27.6020   24.3990   16.9180 C   0  0  0  0  0  0  0  0  0  0  0  0
   26.5250   24.2680   17.9590 C   0  0  0  0  0  0  0  0  0  0  0  0
   25.2500   23.7420   17.3090 C   0  0  0  0  0  0  0  0  0  0  0  0
   25.0630   22.3050   17.6210 N   0  0  0  0  0  0  0  0  0  0  0  0
  1  4  1  0  0  0  0
  1  5  1  0  0  0  0
  2  1  1  0  0  0  0
  3  2  2  0  0  0  0
  6  5  1  6  0  0  0
  6  7  1  0  0  0  0
  7 27  1  1  0  0  0
  8  7  1  1  0  0  0
  8 11  1  0  0  0  0
  8 13  1  0  0  0  0
  9 16  1  6  0  0  0
  9 14  1  0  0  0  0
  9 10  1  0  0  0  0
 11  9  1  0  0  0  0
 12 10  1  0  0  0  0
 12 20  1  1  0  0  0
 13 22  1  6  0  0  0
 13 12  1  0  0  0  0
 14 15  1  0  0  0  0
 16 17  2  0  0  0  0
 18 16  1  0  0  0  0
 19 18  1  0  0  0  0
 21 20  1  0  0  0  0
 22 23  1  0  0  0  0
 23 26  2  0  0  0  0
 24 22  1  0  0  0  0
 25 23  1  0  0  0  0
 27 28  1  0  0  0  0
 29 30  1  0  0  0  0
 29  6  1  0  0  0  0
 31  2  1  0  0  0  0
 32 31  1  0  0  0  0
 32 33  1  0  0  0  0
 33 35  1  0  0  0  0
 33 34  2  0  0  0  0
 34 36  1  0  0  0  0
 35 37  2  0  0  0  0
 36 38  1  0  0  0  0
 37 36  1  0  0  0  0
 39 41  1  0  0  0  0
 39 38  1  0  0  0  0
 40 45  1  0  0  0  0
 40 39  2  0  0  0  0
 42 44  2  0  0  0  0
 42 40  1  0  0  0  0
 43 41  2  0  0  0  0
 44 43  1  0  0  0  0
 46 45  1  0  0  0  0
 47 46  2  0  0  0  0
 48 46  1  0  0  0  0
 49 50  1  0  0  0  0
 51 50  1  0  0  0  0
 51 52  1  0  0  0  0
 53 54  1  0  0  0  0
 53 52  1  0  0  0  0
M  END
>  <REMARK>
 VINA RESULT:    -4.514      7.897     13.458
 INTER + INTRA:         -14.879
 INTER:                  -9.185
 INTRA:                  -5.694
 UNBOUND:                -6.275
 SMILES CC(=O)N[C@@H]1[C@@H](O)C[C@](O)(C(=O)O)O[C@H]1C(O)[C@H](O)CNC(=O)OCc1cn(Cc2ccccc2OC(C)=O)nn1
 SMILES IDX 21 1 22 2 23 3 20 5 18 6 16 7 15 8 9 9 8 10 14 11 6 12 5 13
 SMILES IDX 10 14 11 16 12 17 13 18 7 20 4 22 2 23 1 25 3 26 17 27 19 29
 SMILES IDX 24 31 25 32 26 33 27 34 41 35 28 36 40 37 29 38 30 39 35 40
 SMILES IDX 31 41 34 42 32 43 33 44 36 45 37 46 39 47 38 48
 H PARENT 21 4 10 15 13 19 7 21 4 24 17 28 19 30
 Flexibility Score: inf
  4 active torsions:
  status: ('A' for Active; 'I' for Inactive)
    1  A    between atoms: CA   and  CB  
    2  A    between atoms: CB   and  CG  
    3  A    between atoms: CG   and  CD  
    4  A    between atoms: CD   and  CE  

>  <TORSDO>
F 18

>  <BEGIN_>
RES LYS A 131

$$$$
ligand_21_pose_16_2HRL.pdbqt
 OpenBabel07062320523D

  6  5  0  0  0  0  0  0  0  0999 V2000
   33.1930   34.6630    9.2900 C   0  0  0  0  0  0  0  0  0  0  0  0
   32.0600   35.3600   10.0340 C   0  0  0  0  0  0  0  0  0  0  0  0
   30.7990   35.4960    9.2200 C   0  0  0  0  0  0  0  0  0  0  0  0
   30.1050   34.1510    9.0760 C   0  0  0  0  0  0  0  0  0  0  0  0
   28.6500   34.3400    8.6920 C   0  0  0  0  0  0  0  0  0  0  0  0
   27.7480   33.6410    9.6480 N   0  0  0  0  0  0  0  0  0  0  0  0
  1  2  1  0  0  0  0
  3  2  1  0  0  0  0
  4  3  1  0  0  0  0
  5  4  1  0  0  0  0
  5  6  1  0  0  0  0
M  END
>  <EGIN_R>
ES LYS A 135

>  <REMARK>
  4 active torsions:
  status: ('A' for Active; 'I' for Inactive)
    5  A    between atoms: CA   and  CB  
    6  A    between atoms: CB   and  CG  
    7  A    between atoms: CG   and  CD  
    8  A    between atoms: CD   and  CE  

$$$$
