ligand_74_pose_1_2HRL.pdbqt
 OpenBabel07062320523D

 54 54  0  0  1  0  0  0  0  0999 V2000
   32.3360   36.3970   17.7580 O   0  0  0  0  0  0  0  0  0  0  0  0
   31.8230   35.0980   17.9240 C   0  0  0  0  0  0  0  0  0  0  0  0
   31.7390   34.1960   16.8370 N   0  0  0  0  0  0  0  0  0  0  0  0
   32.0890   34.5620   15.8970 H   0  0  0  0  0  0  0  0  0  0  0  0
   31.4410   34.7630   19.0710 O   0  0  0  0  0  0  0  0  0  0  0  0
   31.2180   32.8520   16.9500 C   0  0  0  0  0  0  0  0  0  0  0  0
   30.6490   32.4270   15.6420 C   0  0  2  0  0  0  0  0  0  0  0  0
   29.3920   33.1850   15.2470 C   0  0  2  0  0  0  0  0  0  0  0  0
   29.5370   33.8340   13.9060 C   0  0  2  0  0  0  0  0  0  0  0  0
   31.1510   35.4520   13.4890 C   0  0  2  0  0  0  0  0  0  0  0  0
   30.2660   36.2540   12.5670 C   0  0  0  0  0  0  0  0  0  0  0  0
   30.8150   34.1070   13.5150 O   0  0  0  0  0  0  0  0  0  0  0  0
   28.9100   35.6070   12.3830 C   0  0  1  0  0  0  0  0  0  0  0  0
   28.5680   35.0030   13.7520 C   0  0  1  0  0  0  0  0  0  0  0  0
   31.1730   36.0100   14.7710 O   0  0  0  0  0  0  0  0  0  0  0  0
   31.8630   35.6320   15.3470 H   0  0  0  0  0  0  0  0  0  0  0  0
   32.5370   35.5410   12.9580 C   0  0  0  0  0  0  0  0  0  0  0  0
   32.7920   36.3970   12.0570 O   0  0  0  0  0  0  0  0  0  0  0  0
   33.5730   34.7410   13.3910 O   0  0  0  0  0  0  0  0  0  0  0  0
   34.4840   35.1760   13.6080 H   0  0  0  0  0  0  0  0  0  0  0  0
   27.9460   36.4780   11.9420 O   0  0  0  0  0  0  0  0  0  0  0  0
   28.1660   37.3770   12.3380 H   0  0  0  0  0  0  0  0  0  0  0  0
   27.2190   34.4940   13.7650 N   0  0  0  0  0  0  0  0  0  0  0  0
   26.1510   35.2750   14.3060 C   0  0  0  0  0  0  0  0  0  0  0  0
   26.9540   33.5510   13.3900 H   0  0  0  0  0  0  0  0  0  0  0  0
   24.7610   34.7850   14.3350 C   0  0  0  0  0  0  0  0  0  0  0  0
   26.3970   36.4150   14.7730 O   0  0  0  0  0  0  0  0  0  0  0  0
   28.9970   34.0350   16.2530 O   0  0  0  0  0  0  0  0  0  0  0  0
   29.5130   33.8360   17.0610 H   0  0  0  0  0  0  0  0  0  0  0  0
   30.2880   31.0620   15.7400 O   0  0  0  0  0  0  0  0  0  0  0  0
   31.0480   30.4770   15.5180 H   0  0  0  0  0  0  0  0  0  0  0  0
   33.6290   36.6520   18.2440 C   0  0  0  0  0  0  0  0  0  0  0  0
   34.6790   36.2080   17.3100 C   0  0  0  0  0  0  0  0  0  0  0  0
   36.0450   36.0650   17.5050 C   0  0  0  0  0  0  0  0  0  0  0  0
   34.4730   35.8460   16.0380 N   0  0  0  0  0  0  0  0  0  0  0  0
   36.6060   35.6290   16.3640 N   0  0  0  0  0  0  0  0  0  0  0  0
   35.6370   35.5050   15.4940 N   0  0  0  0  0  0  0  0  0  0  0  0
   38.0580   35.3550   16.1810 C   0  0  0  0  0  0  0  0  0  0  0  0
   38.3300   35.0270   14.7550 C   0  0  2  0  0  0  0  0  0  0  0  0
   38.1190   33.5340   14.5730 C   0  0  0  0  0  0  0  0  0  0  0  0
   37.5200   33.2840   13.2370 C   0  0  0  0  0  0  0  0  0  0  0  0
   38.1890   32.7800   12.3190 O   0  0  0  0  0  0  0  0  0  0  0  0
   36.1790   33.6380   13.0580 O   0  0  0  0  0  0  0  0  0  0  0  0
   35.5860   33.0580   12.4980 H   0  0  0  0  0  0  0  0  0  0  0  0
   39.6280   35.5280   14.2710 C   0  0  0  0  0  0  0  0  0  0  0  0
   39.6980   36.0960   12.9050 C   0  0  0  0  0  0  0  0  0  0  0  0
   40.0080   37.6070   13.0990 C   0  0  0  0  0  0  0  0  0  0  0  0
   40.7450   35.5550   11.9920 C   0  0  0  0  0  0  0  0  0  0  0  0
   29.8670   25.5550   16.9770 C   0  0  0  0  0  0  0  0  0  0  0  0
   28.3450   25.7220   17.0260 C   0  0  0  0  0  0  0  0  0  0  0  0
   27.6010   24.4010   16.8980 C   0  0  0  0  0  0  0  0  0  0  0  0
   26.1600   24.5210   17.3110 C   0  0  0  0  0  0  0  0  0  0  0  0
   26.0310   25.5710   18.4100 C   0  0  0  0  0  0  0  0  0  0  0  0
   25.5440   24.9520   19.6650 N   0  0  0  0  0  0  0  0  0  0  0  0
  1  2  1  0  0  0  0
  1 32  1  0  0  0  0
  2  5  2  0  0  0  0
  3  6  1  0  0  0  0
  3  2  1  0  0  0  0
  4  3  1  0  0  0  0
  7 30  1  0  0  0  0
  7  6  1  1  0  0  0
  8  7  1  0  0  0  0
  8 28  1  1  0  0  0
  9  8  1  1  0  0  0
 10 17  1  6  0  0  0
 10 12  1  0  0  0  0
 10 15  1  0  0  0  0
 11 10  1  0  0  0  0
 12  9  1  0  0  0  0
 13 21  1  1  0  0  0
 13 11  1  0  0  0  0
 13 14  1  0  0  0  0
 14 23  1  6  0  0  0
 14  9  1  0  0  0  0
 15 16  1  0  0  0  0
 17 19  1  0  0  0  0
 18 17  2  0  0  0  0
 19 20  1  0  0  0  0
 21 22  1  0  0  0  0
 23 24  1  0  0  0  0
 24 26  1  0  0  0  0
 24 27  2  0  0  0  0
 25 23  1  0  0  0  0
 28 29  1  0  0  0  0
 31 30  1  0  0  0  0
 33 34  2  0  0  0  0
 33 32  1  0  0  0  0
 35 33  1  0  0  0  0
 36 34  1  0  0  0  0
 37 35  2  0  0  0  0
 37 36  1  0  0  0  0
 38 36  1  0  0  0  0
 39 45  1  1  0  0  0
 39 38  1  0  0  0  0
 40 39  1  0  0  0  0
 41 40  1  0  0  0  0
 42 41  2  0  0  0  0
 43 41  1  0  0  0  0
 44 43  1  0  0  0  0
 46 47  1  0  0  0  0
 46 45  1  0  0  0  0
 48 46  1  0  0  0  0
 49 50  1  0  0  0  0
 51 50  1  0  0  0  0
 51 52  1  0  0  0  0
 52 53  1  0  0  0  0
 53 54  1  0  0  0  0
M  END
>  <REMARK>
 VINA RESULT:    -4.652      4.192      8.256
 INTER + INTRA:         -16.666
 INTER:                  -9.501
 INTRA:                  -7.165
 UNBOUND:                -7.118
 SMILES CC(=O)N[C@@H]1[C@@H](O)C[C@](O)(C(=O)O)O[C@H]1C(O)[C@H](O)CNC(=O)OCc1cn(C[C@H](CC(=O)O)CC(C)C)nn1
 SMILES IDX 24 1 22 2 21 3 23 5 20 6 18 7 16 8 15 9 9 10 8 11 14 12 6 13
 SMILES IDX 5 14 10 15 11 17 12 18 13 19 7 21 4 23 2 24 1 26 3 27 17 28
 SMILES IDX 19 30 25 32 26 33 27 34 40 35 28 36 39 37 29 38 30 39 31 40
 SMILES IDX 32 41 33 42 34 43 35 45 36 46 37 47 38 48
 H PARENT 21 4 10 16 13 20 7 22 4 25 17 29 19 31 34 44
 Flexibility Score: inf
  4 active torsions:
  status: ('A' for Active; 'I' for Inactive)
    1  A    between atoms: CA   and  CB  
    2  A    between atoms: CB   and  CG  
    3  A    between atoms: CG   and  CD  
    4  A    between atoms: CD   and  CE  

>  <TORSDO>
F 21

>  <BEGIN_>
RES LYS A 131

$$$$
ligand_74_pose_1_2HRL.pdbqt
 OpenBabel07062320523D

  6  5  0  0  0  0  0  0  0  0999 V2000
   33.1930   34.6630    9.2900 C   0  0  0  0  0  0  0  0  0  0  0  0
   32.0600   35.3600   10.0340 C   0  0  0  0  0  0  0  0  0  0  0  0
   30.8170   35.5450    9.2020 C   0  0  0  0  0  0  0  0  0  0  0  0
   30.0380   34.2420    9.1040 C   0  0  0  0  0  0  0  0  0  0  0  0
   28.7000   34.4710    8.4270 C   0  0  0  0  0  0  0  0  0  0  0  0
   28.8590   35.2760    7.1840 N   0  0  0  0  0  0  0  0  0  0  0  0
  1  2  1  0  0  0  0
  3  2  1  0  0  0  0
  4  3  1  0  0  0  0
  5  4  1  0  0  0  0
  6  5  1  0  0  0  0
M  END
>  <EGIN_R>
ES LYS A 135

>  <REMARK>
  4 active torsions:
  status: ('A' for Active; 'I' for Inactive)
    5  A    between atoms: CA   and  CB  
    6  A    between atoms: CB   and  CG  
    7  A    between atoms: CG   and  CD  
    8  A    between atoms: CD   and  CE  

$$$$
