ligand_89_pose_19_2HRL.pdbqt
 OpenBabel07062320523D

 60 63  0  0  1  0  0  0  0  0999 V2000
   26.1400   34.3550   18.3030 N   0  0  0  0  0  0  0  0  0  0  0  0
   25.3740   34.1440   17.1570 C   0  0  0  0  0  0  0  0  0  0  0  0
   24.4440   33.3380   17.0880 O   0  0  0  0  0  0  0  0  0  0  0  0
   26.9110   35.1280   18.2190 H   0  0  0  0  0  0  0  0  0  0  0  0
   26.0190   33.6800   19.5380 C   0  0  0  0  0  0  0  0  0  0  0  0
   27.1600   32.8690   19.9650 C   0  0  2  0  0  0  0  0  0  0  0  0
   27.7780   31.8360   19.1160 C   0  0  1  0  0  0  0  0  0  0  0  0
   26.6750   30.7600   18.8890 C   0  0  2  0  0  0  0  0  0  0  0  0
   27.7580   28.7170   19.3000 C   0  0  2  0  0  0  0  0  0  0  0  0
   27.4340   28.2600   17.9170 C   0  0  0  0  0  0  0  0  0  0  0  0
   26.9330   29.7180   19.6980 O   0  0  0  0  0  0  0  0  0  0  0  0
   27.3110   29.3730   16.9080 C   0  0  1  0  0  0  0  0  0  0  0  0
   26.4710   30.5120   17.4410 C   0  0  1  0  0  0  0  0  0  0  0  0
   29.0920   29.1950   19.3500 O   0  0  0  0  0  0  0  0  0  0  0  0
   29.6070   28.4700   19.7960 H   0  0  0  0  0  0  0  0  0  0  0  0
   27.6480   27.5060   20.1810 C   0  0  0  0  0  0  0  0  0  0  0  0
   26.6220   27.3260   20.8500 O   0  0  0  0  0  0  0  0  0  0  0  0
   28.6830   26.6040   20.2390 O   0  0  0  0  0  0  0  0  0  0  0  0
   28.9460   26.0570   19.4140 H   0  0  0  0  0  0  0  0  0  0  0  0
   28.5530   29.8450   16.4770 O   0  0  0  0  0  0  0  0  0  0  0  0
   28.5900   29.8140   15.4910 H   0  0  0  0  0  0  0  0  0  0  0  0
   25.0720   30.1860   17.1340 N   0  0  0  0  0  0  0  0  0  0  0  0
   24.5440   30.2590   15.8290 C   0  0  0  0  0  0  0  0  0  0  0  0
   24.4090   29.8820   17.9020 H   0  0  0  0  0  0  0  0  0  0  0  0
   23.1280   29.9280   15.5240 C   0  0  0  0  0  0  0  0  0  0  0  0
   25.2860   30.6170   14.8660 O   0  0  0  0  0  0  0  0  0  0  0  0
   28.2170   32.2770   17.8660 O   0  0  0  0  0  0  0  0  0  0  0  0
   27.5150   32.8580   17.4350 H   0  0  0  0  0  0  0  0  0  0  0  0
   26.7530   32.2580   21.2120 O   0  0  0  0  0  0  0  0  0  0  0  0
   27.4930   31.7710   21.6120 H   0  0  0  0  0  0  0  0  0  0  0  0
   25.6350   34.8670   15.9700 O   0  0  0  0  0  0  0  0  0  0  0  0
   26.0690   34.2310   14.8030 C   0  0  0  0  0  0  0  0  0  0  0  0
   27.4820   33.8040   14.9620 C   0  0  0  0  0  0  0  0  0  0  0  0
   28.6020   34.6280   15.0310 C   0  0  0  0  0  0  0  0  0  0  0  0
   27.9760   32.5580   15.0760 N   0  0  0  0  0  0  0  0  0  0  0  0
   29.7270   33.8720   15.1830 N   0  0  0  0  0  0  0  0  0  0  0  0
   29.2860   32.6400   15.2030 N   0  0  0  0  0  0  0  0  0  0  0  0
   31.0360   34.4220   15.2900 C   0  0  0  0  0  0  0  0  0  0  0  0
   31.8680   34.7040   14.2430 N   0  0  0  0  0  0  0  0  0  0  0  0
   31.7330   34.7790   16.4140 C   0  0  0  0  0  0  0  0  0  0  0  0
   33.0100   35.2090   14.7270 C   0  0  0  0  0  0  0  0  0  0  0  0
   32.9630   35.2700   16.0700 N   0  0  0  0  0  0  0  0  0  0  0  0
   31.4250   34.7330   17.7380 C   0  0  0  0  0  0  0  0  0  0  0  0
   33.8480   35.6950   16.9910 C   0  0  0  0  0  0  0  0  0  0  0  0
   32.2690   35.1420   18.6810 N   0  0  0  0  0  0  0  0  0  0  0  0
   30.3140   34.2930   18.1290 O   0  0  0  0  0  0  0  0  0  0  0  0
   35.0790   36.1830   16.6070 C   0  0  0  0  0  0  0  0  0  0  0  0
   33.4770   35.6220   18.3180 C   0  0  0  0  0  0  0  0  0  0  0  0
   36.0100   36.6270   17.5320 C   0  0  0  0  0  0  0  0  0  0  0  0
   34.4260   36.0720   19.2250 C   0  0  0  0  0  0  0  0  0  0  0  0
   35.6620   36.5630   18.8540 C   0  0  0  0  0  0  0  0  0  0  0  0
   32.0040   35.1220   20.1030 C   0  0  0  0  0  0  0  0  0  0  0  0
   31.8820   33.6700   20.5130 C   0  0  0  0  0  0  0  0  0  0  0  0
   30.7450   35.8170   20.5130 C   0  0  0  0  0  0  0  0  0  0  0  0
   29.8670   25.5550   16.9770 C   0  0  0  0  0  0  0  0  0  0  0  0
   28.3450   25.7220   17.0260 C   0  0  0  0  0  0  0  0  0  0  0  0
   27.6010   24.4010   16.8990 C   0  0  0  0  0  0  0  0  0  0  0  0
   26.1460   24.5340   17.2530 C   0  0  0  0  0  0  0  0  0  0  0  0
   25.9860   24.5050   18.7700 C   0  0  0  0  0  0  0  0  0  0  0  0
   25.4890   23.1810   19.2140 N   0  0  0  0  0  0  0  0  0  0  0  0
  1  5  1  0  0  0  0
  2  1  1  0  0  0  0
  3  2  2  0  0  0  0
  4  1  1  0  0  0  0
  6  5  1  6  0  0  0
  6 29  1  0  0  0  0
  7 27  1  6  0  0  0
  7  6  1  0  0  0  0
  8  7  1  6  0  0  0
  8 11  1  0  0  0  0
  9 14  1  1  0  0  0
  9 11  1  0  0  0  0
  9 16  1  0  0  0  0
 10  9  1  0  0  0  0
 12 20  1  1  0  0  0
 12 13  1  0  0  0  0
 12 10  1  0  0  0  0
 13 22  1  1  0  0  0
 13  8  1  0  0  0  0
 14 15  1  0  0  0  0
 16 18  1  0  0  0  0
 16 17  2  0  0  0  0
 19 18  1  0  0  0  0
 21 20  1  0  0  0  0
 22 24  1  0  0  0  0
 23 22  1  0  0  0  0
 25 23  1  0  0  0  0
 26 23  2  0  0  0  0
 28 27  1  0  0  0  0
 29 30  1  0  0  0  0
 31  2  1  0  0  0  0
 32 33  1  0  0  0  0
 32 31  1  0  0  0  0
 33 34  2  0  0  0  0
 33 35  1  0  0  0  0
 34 36  1  0  0  0  0
 35 37  2  0  0  0  0
 36 37  1  0  0  0  0
 36 38  1  0  0  0  0
 38 40  2  0  0  0  0
 39 41  2  0  0  0  0
 39 38  1  0  0  0  0
 40 43  1  0  0  0  0
 41 42  1  0  0  0  0
 42 40  1  0  0  0  0
 42 44  1  0  0  0  0
 43 46  2  0  0  0  0
 43 45  1  0  0  0  0
 44 48  1  0  0  0  0
 45 52  1  0  0  0  0
 47 44  2  0  0  0  0
 47 49  1  0  0  0  0
 48 45  1  0  0  0  0
 48 50  2  0  0  0  0
 49 51  2  0  0  0  0
 51 50  1  0  0  0  0
 52 54  1  0  0  0  0
 52 53  1  0  0  0  0
 55 56  1  0  0  0  0
 57 56  1  0  0  0  0
 57 58  1  0  0  0  0
 58 59  1  0  0  0  0
 59 60  1  0  0  0  0
M  END
>  <REMARK>
 VINA RESULT:    -4.285      2.903      5.814
 INTER + INTRA:         -14.775
 INTER:                  -7.666
 INTRA:                  -7.109
 UNBOUND:                -7.109
 SMILES CC(=O)N[C@@H]1[C@@H](O)C[C@](O)(C(=O)O)O[C@H]1C(O)[C@H](O)CNC(=O)OCc1cn(-c2ncn3c2c(=O)n(C(C)C)c2ccccc23)nn1
 SMILES IDX 21 1 22 2 23 3 20 5 18 6 16 7 15 8 9 9 8 10 14 11 6 12 5 13
 SMILES IDX 10 14 11 16 12 17 13 18 7 20 4 22 2 23 1 25 3 26 17 27 19 29
 SMILES IDX 24 31 25 32 26 33 27 34 47 35 28 36 46 37 29 38 30 39 33 40
 SMILES IDX 31 41 32 42 34 43 45 44 36 45 35 46 44 47 40 48 43 49 41 50
 SMILES IDX 42 51 37 52 38 53 39 54
 H PARENT 21 4 10 15 13 19 7 21 4 24 17 28 19 30
 Flexibility Score: inf
  4 active torsions:
  status: ('A' for Active; 'I' for Inactive)
    1  A    between atoms: CA   and  CB  
    2  A    between atoms: CB   and  CG  
    3  A    between atoms: CG   and  CD  
    4  A    between atoms: CD   and  CE  

>  <TORSDO>
F 16

>  <BEGIN_>
RES LYS A 131

$$$$
ligand_89_pose_19_2HRL.pdbqt
 OpenBabel07062320523D

  6  5  0  0  0  0  0  0  0  0999 V2000
   33.1930   34.6630    9.2900 C   0  0  0  0  0  0  0  0  0  0  0  0
   32.0600   35.3600   10.0340 C   0  0  0  0  0  0  0  0  0  0  0  0
   30.7030   34.7660    9.7580 C   0  0  0  0  0  0  0  0  0  0  0  0
   30.4330   34.7160    8.2620 C   0  0  0  0  0  0  0  0  0  0  0  0
   28.9430   34.6490    7.9910 C   0  0  0  0  0  0  0  0  0  0  0  0
   28.2140   34.0570    9.1470 N   0  0  0  0  0  0  0  0  0  0  0  0
  1  2  1  0  0  0  0
  3  2  1  0  0  0  0
  4  3  1  0  0  0  0
  5  4  1  0  0  0  0
  5  6  1  0  0  0  0
M  END
>  <EGIN_R>
ES LYS A 135

>  <REMARK>
  4 active torsions:
  status: ('A' for Active; 'I' for Inactive)
    5  A    between atoms: CA   and  CB  
    6  A    between atoms: CB   and  CG  
    7  A    between atoms: CG   and  CD  
    8  A    between atoms: CD   and  CE  

$$$$
