ligand_91_pose_6_2HRL.pdbqt
 OpenBabel07062320523D

 57 60  0  0  1  0  0  0  0  0999 V2000
   23.2890   38.4100    9.5910 C   0  0  0  0  0  0  0  0  0  0  0  0
   23.7230   38.7860    8.2000 C   0  0  2  0  0  0  0  0  0  0  0  0
   24.7310   39.8830    8.3370 C   0  0  2  0  0  0  0  0  0  0  0  0
   26.1360   39.4900    7.9020 C   0  0  2  0  0  0  0  0  0  0  0  0
   27.1540   37.9820    6.5520 C   0  0  2  0  0  0  0  0  0  0  0  0
   28.1140   37.4550    7.5860 C   0  0  0  0  0  0  0  0  0  0  0  0
   25.9810   38.4030    7.0870 O   0  0  0  0  0  0  0  0  0  0  0  0
   27.7650   37.8850    8.9800 C   0  0  1  0  0  0  0  0  0  0  0  0
   27.0170   39.1740    9.0540 C   0  0  1  0  0  0  0  0  0  0  0  0
   26.7960   36.8920    5.6920 O   0  0  0  0  0  0  0  0  0  0  0  0
   26.8680   37.1820    4.7500 H   0  0  0  0  0  0  0  0  0  0  0  0
   27.8410   38.9390    5.6510 C   0  0  0  0  0  0  0  0  0  0  0  0
   27.3590   39.2660    4.5340 O   0  0  0  0  0  0  0  0  0  0  0  0
   29.0660   39.5390    5.9800 O   0  0  0  0  0  0  0  0  0  0  0  0
   29.8270   38.9610    6.3030 H   0  0  0  0  0  0  0  0  0  0  0  0
   27.0510   36.8530    9.5990 O   0  0  0  0  0  0  0  0  0  0  0  0
   26.2210   36.6420    9.1030 H   0  0  0  0  0  0  0  0  0  0  0  0
   27.9630   40.2460    9.3870 N   0  0  0  0  0  0  0  0  0  0  0  0
   28.0120   40.8510   10.6730 C   0  0  0  0  0  0  0  0  0  0  0  0
   28.6450   40.6110    8.6860 H   0  0  0  0  0  0  0  0  0  0  0  0
   28.9850   41.9400   10.9950 C   0  0  0  0  0  0  0  0  0  0  0  0
   27.2240   40.4710   11.5770 O   0  0  0  0  0  0  0  0  0  0  0  0
   24.7910   40.2840    9.6630 O   0  0  0  0  0  0  0  0  0  0  0  0
   25.7180   40.1470    9.9770 H   0  0  0  0  0  0  0  0  0  0  0  0
   22.6340   39.1340    7.4370 O   0  0  0  0  0  0  0  0  0  0  0  0
   21.8970   38.4840    7.6430 H   0  0  0  0  0  0  0  0  0  0  0  0
   24.0510   37.4010   10.2410 N   0  0  0  0  0  0  0  0  0  0  0  0
   23.8680   36.0140   10.0650 C   0  0  0  0  0  0  0  0  0  0  0  0
   24.8430   37.6550   10.9330 H   0  0  0  0  0  0  0  0  0  0  0  0
   22.9870   35.5580    9.3090 O   0  0  0  0  0  0  0  0  0  0  0  0
   24.6670   35.0690   10.7300 O   0  0  0  0  0  0  0  0  0  0  0  0
   24.3910   34.7140   12.0850 C   0  0  0  0  0  0  0  0  0  0  0  0
   25.5710   35.0950   12.8970 C   0  0  0  0  0  0  0  0  0  0  0  0
   26.8870   34.7740   12.6360 C   0  0  0  0  0  0  0  0  0  0  0  0
   25.6240   35.8180   14.0420 N   0  0  0  0  0  0  0  0  0  0  0  0
   27.6800   35.2900   13.5890 N   0  0  0  0  0  0  0  0  0  0  0  0
   26.8940   35.9200   14.4340 N   0  0  0  0  0  0  0  0  0  0  0  0
   29.0850   35.1920   13.6870 C   0  0  0  0  0  0  0  0  0  0  0  0
   29.6710   34.1480   14.4080 C   0  0  0  0  0  0  0  0  0  0  0  0
   29.9290   36.1060   13.0790 C   0  0  0  0  0  0  0  0  0  0  0  0
   28.8850   33.2050   15.0370 C   0  0  0  0  0  0  0  0  0  0  0  0
   31.0200   34.0240   14.5160 C   0  0  0  0  0  0  0  0  0  0  0  0
   31.2950   35.9620   13.2000 C   0  0  0  0  0  0  0  0  0  0  0  0
   29.3540   37.1320   12.3730 C   0  0  0  0  0  0  0  0  0  0  0  0
   29.4130   32.1580   15.7600 C   0  0  0  0  0  0  0  0  0  0  0  0
   31.5680   32.9720   15.2430 C   0  0  0  0  0  0  0  0  0  0  0  0
   31.8080   34.9340   13.9100 N   0  0  0  0  0  0  0  0  0  0  0  0
   32.0930   36.8940   12.5820 C   0  0  0  0  0  0  0  0  0  0  0  0
   30.1920   38.0630   11.7560 C   0  0  0  0  0  0  0  0  0  0  0  0
   30.8000   32.0210   15.8770 C   0  0  0  0  0  0  0  0  0  0  0  0
   31.5620   37.9570   11.8520 C   0  0  0  0  0  0  0  0  0  0  0  0
   29.8670   25.5550   16.9770 C   0  0  0  0  0  0  0  0  0  0  0  0
   28.3450   25.7220   17.0260 C   0  0  0  0  0  0  0  0  0  0  0  0
   27.6030   24.3950   16.9730 C   0  0  0  0  0  0  0  0  0  0  0  0
   26.4360   24.3610   17.9210 C   0  0  0  0  0  0  0  0  0  0  0  0
   25.4280   23.3180   17.4490 C   0  0  0  0  0  0  0  0  0  0  0  0
   24.1680   23.9710   17.0210 N   0  0  0  0  0  0  0  0  0  0  0  0
  1 27  1  0  0  0  0
  2  3  1  0  0  0  0
  2  1  1  1  0  0  0
  3 23  1  1  0  0  0
  4  3  1  1  0  0  0
  4  9  1  0  0  0  0
  5 12  1  6  0  0  0
  5  7  1  0  0  0  0
  5  6  1  0  0  0  0
  6  8  1  0  0  0  0
  7  4  1  0  0  0  0
  8  9  1  0  0  0  0
  8 16  1  6  0  0  0
  9 18  1  6  0  0  0
 10  5  1  0  0  0  0
 11 10  1  0  0  0  0
 12 14  1  0  0  0  0
 13 12  2  0  0  0  0
 14 15  1  0  0  0  0
 17 16  1  0  0  0  0
 18 19  1  0  0  0  0
 19 21  1  0  0  0  0
 19 22  2  0  0  0  0
 20 18  1  0  0  0  0
 23 24  1  0  0  0  0
 25 26  1  0  0  0  0
 25  2  1  0  0  0  0
 27 29  1  0  0  0  0
 28 27  1  0  0  0  0
 28 31  1  0  0  0  0
 30 28  2  0  0  0  0
 31 32  1  0  0  0  0
 32 33  1  0  0  0  0
 33 35  1  0  0  0  0
 34 33  2  0  0  0  0
 34 36  1  0  0  0  0
 35 37  2  0  0  0  0
 36 38  1  0  0  0  0
 36 37  1  0  0  0  0
 38 39  2  0  0  0  0
 39 42  1  0  0  0  0
 39 41  1  0  0  0  0
 40 43  1  0  0  0  0
 40 38  1  0  0  0  0
 41 45  2  0  0  0  0
 42 46  1  0  0  0  0
 43 47  1  0  0  0  0
 44 40  2  0  0  0  0
 45 50  1  0  0  0  0
 46 50  2  0  0  0  0
 47 42  2  0  0  0  0
 48 43  2  0  0  0  0
 49 51  2  0  0  0  0
 49 44  1  0  0  0  0
 51 48  1  0  0  0  0
 52 53  1  0  0  0  0
 54 53  1  0  0  0  0
 54 55  1  0  0  0  0
 56 55  1  0  0  0  0
 57 56  1  0  0  0  0
M  END
>  <REMARK>
 VINA RESULT:    -5.687      1.851      3.967
 INTER + INTRA:         -15.927
 INTER:                  -9.554
 INTRA:                  -6.373
 UNBOUND:                -6.084
 SMILES CC(=O)N[C@@H]1[C@@H](O)C[C@](O)(C(=O)O)O[C@H]1C(O)[C@H](O)CNC(=O)OCc1cn(-c2c3ccccc3nc3ccccc23)nn1
 SMILES IDX 20 1 18 2 16 3 15 4 9 5 8 6 14 7 6 8 5 9 10 10 11 12 12 13
 SMILES IDX 13 14 7 16 4 18 2 19 1 21 3 22 17 23 19 25 21 27 22 28 23 30
 SMILES IDX 24 31 25 32 26 33 27 34 44 35 28 36 43 37 29 38 30 39 42 40
 SMILES IDX 31 41 35 42 37 43 41 44 32 45 34 46 36 47 38 48 40 49 33 50
 SMILES IDX 39 51
 H PARENT 10 11 13 15 7 17 4 20 17 24 19 26 21 29
 Flexibility Score: inf
  4 active torsions:
  status: ('A' for Active; 'I' for Inactive)
    1  A    between atoms: CA   and  CB  
    2  A    between atoms: CB   and  CG  
    3  A    between atoms: CG   and  CD  
    4  A    between atoms: CD   and  CE  

>  <TORSDO>
F 15

>  <BEGIN_>
RES LYS A 131

$$$$
ligand_91_pose_6_2HRL.pdbqt
 OpenBabel07062320523D

  6  5  0  0  0  0  0  0  0  0999 V2000
   33.1930   34.6630    9.2900 C   0  0  0  0  0  0  0  0  0  0  0  0
   32.0600   35.3600   10.0340 C   0  0  0  0  0  0  0  0  0  0  0  0
   30.8050   35.5130    9.2140 C   0  0  0  0  0  0  0  0  0  0  0  0
   30.1390   34.1630    8.9950 C   0  0  0  0  0  0  0  0  0  0  0  0
   28.9170   34.0230    9.8830 C   0  0  0  0  0  0  0  0  0  0  0  0
   27.6870   33.8020    9.0710 N   0  0  0  0  0  0  0  0  0  0  0  0
  1  2  1  0  0  0  0
  3  2  1  0  0  0  0
  4  3  1  0  0  0  0
  4  5  1  0  0  0  0
  6  5  1  0  0  0  0
M  END
>  <EGIN_R>
ES LYS A 135

>  <REMARK>
  4 active torsions:
  status: ('A' for Active; 'I' for Inactive)
    5  A    between atoms: CA   and  CB  
    6  A    between atoms: CB   and  CG  
    7  A    between atoms: CG   and  CD  
    8  A    between atoms: CD   and  CE  

$$$$
