ligand_84_pose_9_2HRL.pdbqt
 OpenBabel07062320523D

 60 62  0  0  1  0  0  0  0  0999 V2000
   32.7250   34.3400   14.7560 O   0  0  0  0  0  0  0  0  0  0  0  0
   31.9070   33.5080   15.5050 C   0  0  0  0  0  0  0  0  0  0  0  0
   31.4450   32.2370   15.0660 N   0  0  0  0  0  0  0  0  0  0  0  0
   31.7430   31.9380   14.1170 H   0  0  0  0  0  0  0  0  0  0  0  0
   31.5770   33.9390   16.6430 O   0  0  0  0  0  0  0  0  0  0  0  0
   30.6200   31.5000   15.9660 C   0  0  0  0  0  0  0  0  0  0  0  0
   29.2780   31.1220   15.4810 C   0  0  2  0  0  0  0  0  0  0  0  0
   28.1670   32.1090   15.7880 C   0  0  1  0  0  0  0  0  0  0  0  0
   27.9480   31.9680   17.2950 C   0  0  2  0  0  0  0  0  0  0  0  0
   26.4880   30.8660   18.7440 C   0  0  2  0  0  0  0  0  0  0  0  0
   26.4660   32.0740   19.6380 C   0  0  0  0  0  0  0  0  0  0  0  0
   26.8830   31.1260   17.4590 O   0  0  0  0  0  0  0  0  0  0  0  0
   27.5810   33.0320   19.4200 C   0  0  1  0  0  0  0  0  0  0  0  0
   27.6630   33.3010   17.9020 C   0  0  1  0  0  0  0  0  0  0  0  0
   25.1330   30.4500   18.6670 O   0  0  0  0  0  0  0  0  0  0  0  0
   24.8330   30.3930   17.7410 H   0  0  0  0  0  0  0  0  0  0  0  0
   27.2320   29.7170   19.3380 C   0  0  0  0  0  0  0  0  0  0  0  0
   27.1630   29.4890   20.5720 O   0  0  0  0  0  0  0  0  0  0  0  0
   28.0190   28.8580   18.5850 O   0  0  0  0  0  0  0  0  0  0  0  0
   29.0190   28.9600   18.4580 H   0  0  0  0  0  0  0  0  0  0  0  0
   27.2690   34.2340   20.0560 O   0  0  0  0  0  0  0  0  0  0  0  0
   26.8540   34.8720   19.4180 H   0  0  0  0  0  0  0  0  0  0  0  0
   28.6820   34.2800   17.6310 N   0  0  0  0  0  0  0  0  0  0  0  0
   28.3820   35.6590   17.5800 C   0  0  0  0  0  0  0  0  0  0  0  0
   29.6530   33.9630   17.4700 H   0  0  0  0  0  0  0  0  0  0  0  0
   29.5140   36.5870   17.2900 C   0  0  0  0  0  0  0  0  0  0  0  0
   27.2360   36.1190   17.7660 O   0  0  0  0  0  0  0  0  0  0  0  0
   28.6150   33.4010   15.4690 O   0  0  0  0  0  0  0  0  0  0  0  0
   28.8140   33.8430   16.3340 H   0  0  0  0  0  0  0  0  0  0  0  0
   28.8990   29.9580   16.2060 O   0  0  0  0  0  0  0  0  0  0  0  0
   27.9720   30.1620   16.5200 H   0  0  0  0  0  0  0  0  0  0  0  0
   32.3140   35.6570   14.4270 C   0  0  0  0  0  0  0  0  0  0  0  0
   30.9720   35.6390   13.8030 C   0  0  0  0  0  0  0  0  0  0  0  0
   30.1350   36.7560   13.7240 C   0  0  0  0  0  0  0  0  0  0  0  0
   30.2760   34.6650   13.2010 N   0  0  0  0  0  0  0  0  0  0  0  0
   28.9930   36.4390   13.0970 N   0  0  0  0  0  0  0  0  0  0  0  0
   29.1110   35.1290   12.7850 N   0  0  0  0  0  0  0  0  0  0  0  0
   27.8530   37.2750   12.7690 C   0  0  0  0  0  0  0  0  0  0  0  0
   26.8490   37.2350   13.9290 C   0  0  1  0  0  0  0  0  0  0  0  0
   27.0600   38.3490   14.8850 C   0  0  0  0  0  0  0  0  0  0  0  0
   25.4870   36.9270   13.4650 C   0  0  0  0  0  0  0  0  0  0  0  0
   25.1140   35.5580   13.6380 N   0  0  0  0  0  0  0  0  0  0  0  0
   25.5470   34.7660   12.4550 C   0  0  0  0  0  0  0  0  0  0  0  0
   25.8800   34.9720   14.7330 C   0  0  0  0  0  0  0  0  0  0  0  0
   25.3250   33.3100   12.6630 C   0  0  0  0  0  0  0  0  0  0  0  0
   25.0710   33.7300   15.1370 C   0  0  0  0  0  0  0  0  0  0  0  0
   24.9110   32.9100   13.9710 N   0  0  0  0  0  0  0  0  0  0  0  0
   24.3130   31.6310   14.1450 C   0  0  0  0  0  0  0  0  0  0  0  0
   23.9350   31.2270   15.4070 C   0  0  0  0  0  0  0  0  0  0  0  0
   24.1150   30.7820   13.0650 C   0  0  0  0  0  0  0  0  0  0  0  0
   23.3650   29.9860   15.5700 C   0  0  0  0  0  0  0  0  0  0  0  0
   23.5470   29.5470   13.2400 C   0  0  0  0  0  0  0  0  0  0  0  0
   23.1680   29.1490   14.5130 C   0  0  0  0  0  0  0  0  0  0  0  0
   22.4540   27.5720   14.7190 Cl  0  0  0  0  0  0  0  0  0  0  0  0
   29.8670   25.5550   16.9770 C   0  0  0  0  0  0  0  0  0  0  0  0
   28.3450   25.7220   17.0260 C   0  0  0  0  0  0  0  0  0  0  0  0
   27.6010   24.4020   16.8900 C   0  0  0  0  0  0  0  0  0  0  0  0
   26.1590   24.5200   17.2990 C   0  0  0  0  0  0  0  0  0  0  0  0
   25.7840   23.3390   18.1880 C   0  0  0  0  0  0  0  0  0  0  0  0
   24.7810   22.4800   17.5150 N   0  0  0  0  0  0  0  0  0  0  0  0
  1  2  1  0  0  0  0
  2  5  2  0  0  0  0
  3  2  1  0  0  0  0
  3  6  1  0  0  0  0
  4  3  1  0  0  0  0
  7  8  1  0  0  0  0
  7  6  1  1  0  0  0
  7 30  1  0  0  0  0
  8 28  1  1  0  0  0
  9  8  1  6  0  0  0
  9 12  1  0  0  0  0
  9 14  1  0  0  0  0
 10 15  1  6  0  0  0
 10 17  1  0  0  0  0
 10 11  1  0  0  0  0
 12 10  1  0  0  0  0
 13 11  1  0  0  0  0
 13 21  1  1  0  0  0
 14 23  1  1  0  0  0
 14 13  1  0  0  0  0
 16 15  1  0  0  0  0
 17 18  2  0  0  0  0
 19 17  1  0  0  0  0
 20 19  1  0  0  0  0
 22 21  1  0  0  0  0
 24 23  1  0  0  0  0
 24 27  2  0  0  0  0
 25 23  1  0  0  0  0
 26 24  1  0  0  0  0
 28 29  1  0  0  0  0
 30 31  1  0  0  0  0
 32  1  1  0  0  0  0
 33 32  1  0  0  0  0
 34 33  2  0  0  0  0
 35 33  1  0  0  0  0
 36 34  1  0  0  0  0
 37 36  1  0  0  0  0
 37 35  2  0  0  0  0
 38 36  1  0  0  0  0
 38 39  1  0  0  0  0
 39 40  1  6  0  0  0
 41 42  1  0  0  0  0
 41 39  1  0  0  0  0
 42 44  1  0  0  0  0
 43 45  1  0  0  0  0
 43 42  1  0  0  0  0
 44 46  1  0  0  0  0
 45 47  1  0  0  0  0
 47 48  1  0  0  0  0
 47 46  1  0  0  0  0
 48 49  2  0  0  0  0
 49 51  1  0  0  0  0
 50 52  2  0  0  0  0
 50 48  1  0  0  0  0
 52 53  1  0  0  0  0
 53 54  1  0  0  0  0
 53 51  2  0  0  0  0
 55 56  1  0  0  0  0
 57 56  1  0  0  0  0
 57 58  1  0  0  0  0
 58 59  1  0  0  0  0
 60 59  1  0  0  0  0
M  END
>  <REMARK>
 VINA RESULT:    -5.107      5.417      9.734
 INTER + INTRA:         -16.154
 INTER:                  -8.606
 INTRA:                  -7.548
 UNBOUND:                -6.121
 SMILES CC(=O)N[C@@H]1[C@@H](O)C[C@](O)(C(=O)O)O[C@H]1C(O)[C@H](O)CNC(=O)OCc1cn(C[C@@H](C)CN2CCN(c3ccc(Cl)cc3)CC2)nn1
 SMILES IDX 24 1 22 2 21 3 23 5 20 6 18 7 16 8 15 9 9 10 8 11 14 12 6 13
 SMILES IDX 5 14 10 15 11 17 12 18 13 19 7 21 4 23 2 24 1 26 3 27 17 28
 SMILES IDX 19 30 25 32 26 33 27 34 47 35 28 36 46 37 29 38 30 39 31 40
 SMILES IDX 32 41 33 42 34 43 45 44 35 45 44 46 36 47 37 48 38 49 43 50
 SMILES IDX 39 51 42 52 40 53 41 54
 H PARENT 21 4 10 16 13 20 7 22 4 25 17 29 19 31
 Flexibility Score: inf
  4 active torsions:
  status: ('A' for Active; 'I' for Inactive)
    1  A    between atoms: CA   and  CB  
    2  A    between atoms: CB   and  CG  
    3  A    between atoms: CG   and  CD  
    4  A    between atoms: CD   and  CE  

>  <TORSDO>
F 19

>  <BEGIN_>
RES LYS A 131

$$$$
ligand_84_pose_9_2HRL.pdbqt
 OpenBabel07062320523D

  6  5  0  0  0  0  0  0  0  0999 V2000
   33.1930   34.6630    9.2900 C   0  0  0  0  0  0  0  0  0  0  0  0
   32.0600   35.3600   10.0340 C   0  0  0  0  0  0  0  0  0  0  0  0
   30.7940   35.4820    9.2260 C   0  0  0  0  0  0  0  0  0  0  0  0
   30.1420   34.1200    9.0410 C   0  0  0  0  0  0  0  0  0  0  0  0
   28.6760   34.2750    8.6840 C   0  0  0  0  0  0  0  0  0  0  0  0
   27.8020   33.6790    9.7320 N   0  0  0  0  0  0  0  0  0  0  0  0
  1  2  1  0  0  0  0
  3  2  1  0  0  0  0
  4  3  1  0  0  0  0
  5  4  1  0  0  0  0
  5  6  1  0  0  0  0
M  END
>  <EGIN_R>
ES LYS A 135

>  <REMARK>
  4 active torsions:
  status: ('A' for Active; 'I' for Inactive)
    5  A    between atoms: CA   and  CB  
    6  A    between atoms: CB   and  CG  
    7  A    between atoms: CG   and  CD  
    8  A    between atoms: CD   and  CE  

$$$$
