ligand_93_pose_1_2HRL.pdbqt
 OpenBabel07062320523D

 50 51  0  0  1  0  0  0  0  0999 V2000
   26.9670   29.2880   18.6860 C   0  0  0  0  0  0  0  0  0  0  0  0
   26.9750   28.3380   19.8610 C   0  0  2  0  0  0  0  0  0  0  0  0
   28.3310   27.7610   20.0670 C   0  0  1  0  0  0  0  0  0  0  0  0
   29.0300   28.1610   21.3410 C   0  0  2  0  0  0  0  0  0  0  0  0
   30.8660   29.5770   20.9180 C   0  0  2  0  0  0  0  0  0  0  0  0
   31.7880   28.6590   21.6940 C   0  0  0  0  0  0  0  0  0  0  0  0
   29.5500   29.3970   21.1490 O   0  0  0  0  0  0  0  0  0  0  0  0
   31.3090   27.2510   21.4550 C   0  0  1  0  0  0  0  0  0  0  0  0
   29.8960   27.1450   21.9720 C   0  0  1  0  0  0  0  0  0  0  0  0
   31.1210   29.3170   19.5720 O   0  0  0  0  0  0  0  0  0  0  0  0
   31.9740   29.7970   19.3470 H   0  0  0  0  0  0  0  0  0  0  0  0
   31.3200   30.9770   21.1920 C   0  0  0  0  0  0  0  0  0  0  0  0
   31.8430   31.3280   22.2720 O   0  0  0  0  0  0  0  0  0  0  0  0
   31.1520   31.9220   20.2030 O   0  0  0  0  0  0  0  0  0  0  0  0
   31.9140   32.2400   19.6000 H   0  0  0  0  0  0  0  0  0  0  0  0
   31.4020   27.0240   20.0810 O   0  0  0  0  0  0  0  0  0  0  0  0
   32.3200   27.1610   19.7400 H   0  0  0  0  0  0  0  0  0  0  0  0
   29.9670   27.3760   23.4260 N   0  0  0  0  0  0  0  0  0  0  0  0
   29.8660   26.3140   24.3580 C   0  0  0  0  0  0  0  0  0  0  0  0
   30.0940   28.3390   23.7930 H   0  0  0  0  0  0  0  0  0  0  0  0
   29.9470   26.6270   25.8020 C   0  0  0  0  0  0  0  0  0  0  0  0
   29.7090   25.1160   23.9730 O   0  0  0  0  0  0  0  0  0  0  0  0
   28.3880   26.4010   19.7950 O   0  0  0  0  0  0  0  0  0  0  0  0
   28.3400   25.8570   20.6300 H   0  0  0  0  0  0  0  0  0  0  0  0
   26.0300   27.3300   19.5340 O   0  0  0  0  0  0  0  0  0  0  0  0
   25.5210   27.6140   18.7270 H   0  0  0  0  0  0  0  0  0  0  0  0
   28.2780   29.5450   18.1350 N   0  0  0  0  0  0  0  0  0  0  0  0
   28.7210   30.9000   18.0110 C   0  0  0  0  0  0  0  0  0  0  0  0
   28.8650   28.7420   17.8510 H   0  0  0  0  0  0  0  0  0  0  0  0
   27.9580   31.8080   18.3830 O   0  0  0  0  0  0  0  0  0  0  0  0
   29.9810   31.1190   17.4800 O   0  0  0  0  0  0  0  0  0  0  0  0
   30.1130   31.2840   16.0920 C   0  0  0  0  0  0  0  0  0  0  0  0
   30.7690   32.5910   15.8440 C   0  0  0  0  0  0  0  0  0  0  0  0
   30.6100   33.3380   14.6720 C   0  0  0  0  0  0  0  0  0  0  0  0
   31.5970   33.3000   16.6190 N   0  0  0  0  0  0  0  0  0  0  0  0
   31.3570   34.4330   14.8440 N   0  0  0  0  0  0  0  0  0  0  0  0
   31.9590   34.4200   16.0170 N   0  0  0  0  0  0  0  0  0  0  0  0
   31.4920   35.4770   13.8960 C   0  0  0  0  0  0  0  0  0  0  0  0
   32.5040   35.3930   12.9410 C   0  0  0  0  0  0  0  0  0  0  0  0
   30.6310   36.5390   13.9370 C   0  0  0  0  0  0  0  0  0  0  0  0
   32.6430   36.4040   12.0140 C   0  0  0  0  0  0  0  0  0  0  0  0
   30.7870   37.5430   12.9990 C   0  0  0  0  0  0  0  0  0  0  0  0
   29.0880   36.7100   15.3610 I   0  0  0  0  0  0  0  0  0  0  0  0
   31.7840   37.4810   12.0420 C   0  0  0  0  0  0  0  0  0  0  0  0
   29.8670   25.5550   16.9770 C   0  0  0  0  0  0  0  0  0  0  0  0
   28.3450   25.7220   17.0260 C   0  0  0  0  0  0  0  0  0  0  0  0
   27.6020   24.3980   16.9300 C   0  0  0  0  0  0  0  0  0  0  0  0
   26.1720   24.5180   17.3780 C   0  0  0  0  0  0  0  0  0  0  0  0
   25.9390   23.6180   18.5870 C   0  0  0  0  0  0  0  0  0  0  0  0
   24.7650   24.0830   19.3620 N   0  0  0  0  0  0  0  0  0  0  0  0
  2  1  1  6  0  0  0
  2  3  1  0  0  0  0
  3 23  1  1  0  0  0
  4  3  1  6  0  0  0
  4  9  1  0  0  0  0
  5 10  1  6  0  0  0
  5  7  1  0  0  0  0
  5 12  1  0  0  0  0
  5  6  1  0  0  0  0
  7  4  1  0  0  0  0
  8 16  1  6  0  0  0
  8  6  1  0  0  0  0
  8  9  1  0  0  0  0
  9 18  1  1  0  0  0
 11 10  1  0  0  0  0
 12 13  2  0  0  0  0
 14 12  1  0  0  0  0
 15 14  1  0  0  0  0
 17 16  1  0  0  0  0
 18 20  1  0  0  0  0
 18 19  1  0  0  0  0
 19 21  1  0  0  0  0
 22 19  2  0  0  0  0
 23 24  1  0  0  0  0
 25  2  1  0  0  0  0
 26 25  1  0  0  0  0
 27  1  1  0  0  0  0
 28 27  1  0  0  0  0
 28 30  2  0  0  0  0
 29 27  1  0  0  0  0
 31 28  1  0  0  0  0
 32 31  1  0  0  0  0
 33 32  1  0  0  0  0
 33 35  1  0  0  0  0
 34 36  1  0  0  0  0
 34 33  2  0  0  0  0
 36 37  1  0  0  0  0
 37 35  2  0  0  0  0
 38 40  1  0  0  0  0
 38 36  1  0  0  0  0
 39 38  2  0  0  0  0
 40 43  1  0  0  0  0
 41 44  2  0  0  0  0
 41 39  1  0  0  0  0
 42 40  2  0  0  0  0
 44 42  1  0  0  0  0
 45 46  1  0  0  0  0
 47 46  1  0  0  0  0
 47 48  1  0  0  0  0
 48 49  1  0  0  0  0
 49 50  1  0  0  0  0
M  END
>  <REMARK>
 VINA RESULT:    -4.824      4.115      6.642
 INTER + INTRA:         -14.634
 INTER:                  -9.704
 INTRA:                  -4.930
 UNBOUND:                -6.285
 SMILES CC(=O)N[C@@H]1[C@@H](O)C[C@](O)(C(=O)O)O[C@H]1C(O)[C@H](O)CNC(=O)OCc1cn(-c2ccccc2I)nn1
 SMILES IDX 20 1 18 2 16 3 15 4 9 5 8 6 14 7 6 8 5 9 10 10 11 12 12 13
 SMILES IDX 13 14 7 16 4 18 2 19 1 21 3 22 17 23 19 25 21 27 22 28 23 30
 SMILES IDX 24 31 25 32 26 33 27 34 37 35 28 36 36 37 29 38 30 39 34 40
 SMILES IDX 31 41 33 42 35 43 32 44
 H PARENT 10 11 13 15 7 17 4 20 17 24 19 26 21 29
 Flexibility Score: inf
  4 active torsions:
  status: ('A' for Active; 'I' for Inactive)
    1  A    between atoms: CA   and  CB  
    2  A    between atoms: CB   and  CG  
    3  A    between atoms: CG   and  CD  
    4  A    between atoms: CD   and  CE  

>  <TORSDO>
F 15

>  <BEGIN_>
RES LYS A 131

$$$$
ligand_93_pose_1_2HRL.pdbqt
 OpenBabel07062320523D

  6  5  0  0  0  0  0  0  0  0999 V2000
   33.1930   34.6630    9.2900 C   0  0  0  0  0  0  0  0  0  0  0  0
   32.0600   35.3600   10.0340 C   0  0  0  0  0  0  0  0  0  0  0  0
   30.6890   34.8950    9.6160 C   0  0  0  0  0  0  0  0  0  0  0  0
   30.0400   35.9070    8.6840 C   0  0  0  0  0  0  0  0  0  0  0  0
   29.3290   35.2030    7.5450 C   0  0  0  0  0  0  0  0  0  0  0  0
   27.8530   35.2210    7.7410 N   0  0  0  0  0  0  0  0  0  0  0  0
  1  2  1  0  0  0  0
  3  2  1  0  0  0  0
  4  3  1  0  0  0  0
  5  6  1  0  0  0  0
  5  4  1  0  0  0  0
M  END
>  <EGIN_R>
ES LYS A 135

>  <REMARK>
  4 active torsions:
  status: ('A' for Active; 'I' for Inactive)
    5  A    between atoms: CA   and  CB  
    6  A    between atoms: CB   and  CG  
    7  A    between atoms: CG   and  CD  
    8  A    between atoms: CD   and  CE  

$$$$
