ligand_52_pose_12_2HRL.pdbqt
 OpenBabel07062320523D

 49 50  0  0  1  0  0  0  0  0999 V2000
   31.8170   38.7160    9.9120 C   0  0  0  0  0  0  0  0  0  0  0  0
   30.8380   38.3030    8.8760 C   0  0  2  0  0  0  0  0  0  0  0  0
   30.9170   39.0940    7.6260 C   0  0  2  0  0  0  0  0  0  0  0  0
   29.6970   39.2060    6.7800 C   0  0  2  0  0  0  0  0  0  0  0  0
   27.8180   38.2150    5.9880 C   0  0  2  0  0  0  0  0  0  0  0  0
   27.6050   39.3320    5.0300 C   0  0  0  0  0  0  0  0  0  0  0  0
   29.1100   38.0290    6.4430 O   0  0  0  0  0  0  0  0  0  0  0  0
   28.4770   40.5280    5.1800 C   0  0  1  0  0  0  0  0  0  0  0  0
   29.9120   40.0640    5.5650 C   0  0  1  0  0  0  0  0  0  0  0  0
   27.5110   37.0260    5.2520 O   0  0  0  0  0  0  0  0  0  0  0  0
   26.9930   36.4790    5.8870 H   0  0  0  0  0  0  0  0  0  0  0  0
   26.8650   38.2330    7.1210 C   0  0  0  0  0  0  0  0  0  0  0  0
   25.8820   39.0140    7.0930 O   0  0  0  0  0  0  0  0  0  0  0  0
   26.9660   37.4330    8.2520 O   0  0  0  0  0  0  0  0  0  0  0  0
   27.4780   36.5520    8.1310 H   0  0  0  0  0  0  0  0  0  0  0  0
   28.6300   41.1910    3.9610 O   0  0  0  0  0  0  0  0  0  0  0  0
   27.7400   41.3640    3.5670 H   0  0  0  0  0  0  0  0  0  0  0  0
   30.5990   41.2640    5.9600 N   0  0  0  0  0  0  0  0  0  0  0  0
   31.5180   41.9540    5.1380 C   0  0  0  0  0  0  0  0  0  0  0  0
   30.4140   41.6670    6.9170 H   0  0  0  0  0  0  0  0  0  0  0  0
   32.1750   43.1840    5.6370 C   0  0  0  0  0  0  0  0  0  0  0  0
   31.7690   41.5170    3.9920 O   0  0  0  0  0  0  0  0  0  0  0  0
   32.1020   38.9540    6.9300 O   0  0  0  0  0  0  0  0  0  0  0  0
   32.7160   39.7050    6.9580 H   0  0  0  0  0  0  0  0  0  0  0  0
   29.5210   38.4780    9.3700 O   0  0  0  0  0  0  0  0  0  0  0  0
   29.6000   38.6990   10.3200 H   0  0  0  0  0  0  0  0  0  0  0  0
   31.9360   37.8730   11.0640 N   0  0  0  0  0  0  0  0  0  0  0  0
   31.1870   37.9630   12.2310 C   0  0  0  0  0  0  0  0  0  0  0  0
   32.6670   37.0970   11.0360 H   0  0  0  0  0  0  0  0  0  0  0  0
   30.3170   38.8310   12.3790 O   0  0  0  0  0  0  0  0  0  0  0  0
   31.3580   37.0880   13.3180 O   0  0  0  0  0  0  0  0  0  0  0  0
   32.3070   36.0480   13.2620 C   0  0  0  0  0  0  0  0  0  0  0  0
   31.9350   34.9200   14.1370 C   0  0  0  0  0  0  0  0  0  0  0  0
   30.6690   34.3580   14.1490 C   0  0  0  0  0  0  0  0  0  0  0  0
   32.6400   34.2320   15.0350 N   0  0  0  0  0  0  0  0  0  0  0  0
   30.6500   33.3580   15.0470 N   0  0  0  0  0  0  0  0  0  0  0  0
   31.8460   33.2940   15.5730 N   0  0  0  0  0  0  0  0  0  0  0  0
   29.5430   32.5130   15.3780 C   0  0  0  0  0  0  0  0  0  0  0  0
   29.7200   31.1680   15.6520 C   0  0  0  0  0  0  0  0  0  0  0  0
   28.2680   33.0380   15.4290 C   0  0  0  0  0  0  0  0  0  0  0  0
   28.6090   30.3840   15.9700 C   0  0  0  0  0  0  0  0  0  0  0  0
   27.2020   32.2490   15.7410 N   0  0  0  0  0  0  0  0  0  0  0  0
   27.3430   30.9400   16.0130 C   0  0  0  0  0  0  0  0  0  0  0  0
   29.8670   25.5550   16.9770 C   0  0  0  0  0  0  0  0  0  0  0  0
   28.3450   25.7220   17.0260 C   0  0  0  0  0  0  0  0  0  0  0  0
   27.6010   24.4030   16.8870 C   0  0  0  0  0  0  0  0  0  0  0  0
   26.1600   24.5190   17.3000 C   0  0  0  0  0  0  0  0  0  0  0  0
   25.8900   23.5820   18.4740 C   0  0  0  0  0  0  0  0  0  0  0  0
   25.5010   24.3570   19.6760 N   0  0  0  0  0  0  0  0  0  0  0  0
  1 27  1  0  0  0  0
  2 25  1  0  0  0  0
  2  1  1  1  0  0  0
  3 23  1  6  0  0  0
  3  2  1  0  0  0  0
  4  3  1  6  0  0  0
  5 10  1  6  0  0  0
  5  7  1  0  0  0  0
  5 12  1  0  0  0  0
  6  8  1  0  0  0  0
  6  5  1  0  0  0  0
  7  4  1  0  0  0  0
  8 16  1  6  0  0  0
  8  9  1  0  0  0  0
  9 18  1  1  0  0  0
  9  4  1  0  0  0  0
 10 11  1  0  0  0  0
 12 14  1  0  0  0  0
 13 12  2  0  0  0  0
 15 14  1  0  0  0  0
 17 16  1  0  0  0  0
 18 20  1  0  0  0  0
 19 21  1  0  0  0  0
 19 18  1  0  0  0  0
 22 19  2  0  0  0  0
 23 24  1  0  0  0  0
 25 26  1  0  0  0  0
 27 28  1  0  0  0  0
 28 30  2  0  0  0  0
 28 31  1  0  0  0  0
 29 27  1  0  0  0  0
 32 31  1  0  0  0  0
 32 33  1  0  0  0  0
 33 34  2  0  0  0  0
 33 35  1  0  0  0  0
 34 36  1  0  0  0  0
 35 37  2  0  0  0  0
 36 38  1  0  0  0  0
 36 37  1  0  0  0  0
 38 40  2  0  0  0  0
 38 39  1  0  0  0  0
 39 41  2  0  0  0  0
 40 42  1  0  0  0  0
 41 43  1  0  0  0  0
 42 43  2  0  0  0  0
 44 45  1  0  0  0  0
 46 45  1  0  0  0  0
 46 47  1  0  0  0  0
 47 48  1  0  0  0  0
 48 49  1  0  0  0  0
M  END
>  <REMARK>
 VINA RESULT:    -4.858      7.156     12.897
 INTER + INTRA:         -13.571
 INTER:                  -8.669
 INTRA:                  -4.903
 UNBOUND:                -5.164
 SMILES CC(=O)N[C@@H]1[C@@H](O)C[C@](O)(C(=O)O)O[C@H]1C(O)[C@H](O)CNC(=O)OCc1cn(-c2cccnc2)nn1
 SMILES IDX 20 1 18 2 16 3 15 4 9 5 8 6 14 7 6 8 5 9 10 10 11 12 12 13
 SMILES IDX 13 14 7 16 4 18 2 19 1 21 3 22 17 23 19 25 21 27 22 28 23 30
 SMILES IDX 24 31 25 32 26 33 27 34 36 35 28 36 35 37 29 38 30 39 34 40
 SMILES IDX 31 41 33 42 32 43
 H PARENT 10 11 13 15 7 17 4 20 17 24 19 26 21 29
 Flexibility Score: inf
  4 active torsions:
  status: ('A' for Active; 'I' for Inactive)
    1  A    between atoms: CA   and  CB  
    2  A    between atoms: CB   and  CG  
    3  A    between atoms: CG   and  CD  
    4  A    between atoms: CD   and  CE  

>  <TORSDO>
F 15

>  <BEGIN_>
RES LYS A 131

$$$$
ligand_52_pose_12_2HRL.pdbqt
 OpenBabel07062320523D

  6  5  0  0  0  0  0  0  0  0999 V2000
   33.1930   34.6630    9.2900 C   0  0  0  0  0  0  0  0  0  0  0  0
   32.0600   35.3600   10.0340 C   0  0  0  0  0  0  0  0  0  0  0  0
   30.7210   34.6940    9.8530 C   0  0  0  0  0  0  0  0  0  0  0  0
   30.2840   34.7520    8.3970 C   0  0  0  0  0  0  0  0  0  0  0  0
   28.7960   34.4860    8.2760 C   0  0  0  0  0  0  0  0  0  0  0  0
   28.1560   34.3960    9.6180 N   0  0  0  0  0  0  0  0  0  0  0  0
  1  2  1  0  0  0  0
  3  2  1  0  0  0  0
  4  3  1  0  0  0  0
  5  4  1  0  0  0  0
  5  6  1  0  0  0  0
M  END
>  <EGIN_R>
ES LYS A 135

>  <REMARK>
  4 active torsions:
  status: ('A' for Active; 'I' for Inactive)
    5  A    between atoms: CA   and  CB  
    6  A    between atoms: CB   and  CG  
    7  A    between atoms: CG   and  CD  
    8  A    between atoms: CD   and  CE  

$$$$
