ligand_72_pose_6_2HRL.pdbqt
 OpenBabel07062320523D

 49 49  0  0  1  0  0  0  0  0999 V2000
   28.9370   31.5030   17.2340 N   0  0  0  0  0  0  0  0  0  0  0  0
   28.1570   30.7410   16.3060 C   0  0  0  0  0  0  0  0  0  0  0  0
   28.7090   30.0430   15.3900 O   0  0  0  0  0  0  0  0  0  0  0  0
   28.4390   32.0430   17.9660 H   0  0  0  0  0  0  0  0  0  0  0  0
   30.3810   31.4830   17.1370 C   0  0  0  0  0  0  0  0  0  0  0  0
   30.9170   32.5140   16.2220 C   0  0  2  0  0  0  0  0  0  0  0  0
   30.0750   33.6970   15.9260 C   0  0  1  0  0  0  0  0  0  0  0  0
   30.8680   34.9780   16.0110 C   0  0  2  0  0  0  0  0  0  0  0  0
   31.7470   35.2140   13.8280 C   0  0  2  0  0  0  0  0  0  0  0  0
   33.1570   34.9430   14.3860 C   0  0  0  0  0  0  0  0  0  0  0  0
   30.8740   35.6140   14.7870 O   0  0  0  0  0  0  0  0  0  0  0  0
   33.1970   35.6270   15.7110 C   0  0  1  0  0  0  0  0  0  0  0  0
   32.2240   34.8380   16.6330 C   0  0  1  0  0  0  0  0  0  0  0  0
   31.3620   34.1340   13.0610 O   0  0  0  0  0  0  0  0  0  0  0  0
   31.9710   33.3730   13.2210 H   0  0  0  0  0  0  0  0  0  0  0  0
   31.8830   36.3930   12.8840 C   0  0  0  0  0  0  0  0  0  0  0  0
   31.1220   37.3830   12.9810 O   0  0  0  0  0  0  0  0  0  0  0  0
   32.8670   36.3390   11.9210 O   0  0  0  0  0  0  0  0  0  0  0  0
   33.8350   36.5520   12.1380 H   0  0  0  0  0  0  0  0  0  0  0  0
   34.4540   35.6680   16.2800 O   0  0  0  0  0  0  0  0  0  0  0  0
   34.7360   34.7260   16.4260 H   0  0  0  0  0  0  0  0  0  0  0  0
   32.3530   35.5730   17.9020 N   0  0  0  0  0  0  0  0  0  0  0  0
   32.1500   34.9860   19.1550 C   0  0  0  0  0  0  0  0  0  0  0  0
   32.6090   36.5800   17.8340 H   0  0  0  0  0  0  0  0  0  0  0  0
   32.2700   35.7100   20.4470 C   0  0  0  0  0  0  0  0  0  0  0  0
   31.8450   33.7630   19.2050 O   0  0  0  0  0  0  0  0  0  0  0  0
   29.1560   33.6130   14.9320 O   0  0  0  0  0  0  0  0  0  0  0  0
   29.5330   33.5440   14.0170 H   0  0  0  0  0  0  0  0  0  0  0  0
   31.2740   31.9080   14.9950 O   0  0  0  0  0  0  0  0  0  0  0  0
   32.1310   31.4470   15.1300 H   0  0  0  0  0  0  0  0  0  0  0  0
   26.7910   30.7780   16.4220 O   0  0  0  0  0  0  0  0  0  0  0  0
   26.0920   31.8670   16.9460 C   0  0  0  0  0  0  0  0  0  0  0  0
   26.1160   33.0250   16.0150 C   0  0  0  0  0  0  0  0  0  0  0  0
   26.1910   34.3380   16.4080 C   0  0  0  0  0  0  0  0  0  0  0  0
   26.0710   33.0300   14.6830 N   0  0  0  0  0  0  0  0  0  0  0  0
   26.1910   35.1070   15.3140 N   0  0  0  0  0  0  0  0  0  0  0  0
   26.1180   34.2770   14.2710 N   0  0  0  0  0  0  0  0  0  0  0  0
   26.2580   36.5450   15.3000 C   0  0  0  0  0  0  0  0  0  0  0  0
   25.6510   37.1230   16.5610 C   0  0  0  0  0  0  0  0  0  0  0  0
   25.5100   37.0550   14.0750 C   0  0  0  0  0  0  0  0  0  0  0  0
   27.6920   36.9860   15.1510 C   0  0  0  0  0  0  0  0  0  0  0  0
   28.2610   36.3850   14.0240 O   0  0  0  0  0  0  0  0  0  0  0  0
   28.0660   36.9500   13.2340 H   0  0  0  0  0  0  0  0  0  0  0  0
   29.8670   25.5550   16.9770 C   0  0  0  0  0  0  0  0  0  0  0  0
   28.3450   25.7220   17.0260 C   0  0  0  0  0  0  0  0  0  0  0  0
   27.5990   24.4780   16.5680 C   0  0  0  0  0  0  0  0  0  0  0  0
   26.9380   23.7610   17.7120 C   0  0  0  0  0  0  0  0  0  0  0  0
   25.4260   23.9460   17.6230 C   0  0  0  0  0  0  0  0  0  0  0  0
   24.7440   22.6300   17.5810 N   0  0  0  0  0  0  0  0  0  0  0  0
  1  4  1  0  0  0  0
  2 31  1  0  0  0  0
  2  1  1  0  0  0  0
  3  2  2  0  0  0  0
  5  1  1  0  0  0  0
  6  5  1  1  0  0  0
  7 27  1  6  0  0  0
  7  6  1  0  0  0  0
  8  7  1  6  0  0  0
  8 13  1  0  0  0  0
  9 16  1  6  0  0  0
  9 10  1  0  0  0  0
  9 11  1  0  0  0  0
 10 12  1  0  0  0  0
 11  8  1  0  0  0  0
 12 20  1  1  0  0  0
 12 13  1  0  0  0  0
 13 22  1  1  0  0  0
 14 15  1  0  0  0  0
 14  9  1  0  0  0  0
 16 17  2  0  0  0  0
 18 19  1  0  0  0  0
 18 16  1  0  0  0  0
 20 21  1  0  0  0  0
 22 23  1  0  0  0  0
 23 26  2  0  0  0  0
 23 25  1  0  0  0  0
 24 22  1  0  0  0  0
 28 27  1  0  0  0  0
 29 30  1  0  0  0  0
 29  6  1  0  0  0  0
 31 32  1  0  0  0  0
 33 34  2  0  0  0  0
 33 32  1  0  0  0  0
 35 33  1  0  0  0  0
 36 34  1  0  0  0  0
 37 35  2  0  0  0  0
 37 36  1  0  0  0  0
 38 36  1  0  0  0  0
 38 39  1  0  0  0  0
 40 38  1  0  0  0  0
 41 38  1  0  0  0  0
 42 41  1  0  0  0  0
 43 42  1  0  0  0  0
 44 45  1  0  0  0  0
 46 45  1  0  0  0  0
 46 47  1  0  0  0  0
 48 47  1  0  0  0  0
 49 48  1  0  0  0  0
M  END
>  <REMARK>
 VINA RESULT:    -4.541      5.637     10.650
 INTER + INTRA:         -14.402
 INTER:                  -6.984
 INTRA:                  -7.418
 UNBOUND:                -6.145
 SMILES CC(=O)N[C@@H]1[C@@H](O)C[C@](O)(C(=O)O)O[C@H]1C(O)[C@H](O)CNC(=O)OCc1cn(C(C)(C)CO)nn1
 SMILES IDX 21 1 22 2 23 3 20 5 18 6 16 7 15 8 9 9 8 10 14 11 6 12 5 13
 SMILES IDX 10 14 11 16 12 17 13 18 7 20 4 22 2 23 1 25 3 26 17 27 19 29
 SMILES IDX 24 31 25 32 26 33 27 34 35 35 28 36 34 37 29 38 30 39 31 40
 SMILES IDX 32 41 33 42
 H PARENT 21 4 10 15 13 19 7 21 4 24 17 28 19 30 33 43
 Flexibility Score: inf
  4 active torsions:
  status: ('A' for Active; 'I' for Inactive)
    1  A    between atoms: CA   and  CB  
    2  A    between atoms: CB   and  CG  
    3  A    between atoms: CG   and  CD  
    4  A    between atoms: CD   and  CE  

>  <TORSDO>
F 17

>  <BEGIN_>
RES LYS A 131

$$$$
ligand_72_pose_6_2HRL.pdbqt
 OpenBabel07062320523D

  6  5  0  0  0  0  0  0  0  0999 V2000
   33.1930   34.6630    9.2900 C   0  0  0  0  0  0  0  0  0  0  0  0
   32.0600   35.3600   10.0340 C   0  0  0  0  0  0  0  0  0  0  0  0
   30.6980   34.7960    9.7220 C   0  0  0  0  0  0  0  0  0  0  0  0
   30.5670   34.4990    8.2360 C   0  0  0  0  0  0  0  0  0  0  0  0
   29.1980   34.9100    7.7300 C   0  0  0  0  0  0  0  0  0  0  0  0
   28.1230   34.4460    8.6500 N   0  0  0  0  0  0  0  0  0  0  0  0
  1  2  1  0  0  0  0
  3  2  1  0  0  0  0
  4  3  1  0  0  0  0
  5  4  1  0  0  0  0
  5  6  1  0  0  0  0
M  END
>  <EGIN_R>
ES LYS A 135

>  <REMARK>
  4 active torsions:
  status: ('A' for Active; 'I' for Inactive)
    5  A    between atoms: CA   and  CB  
    6  A    between atoms: CB   and  CG  
    7  A    between atoms: CG   and  CD  
    8  A    between atoms: CD   and  CE  

$$$$
