ligand_59_pose_7_2HRL.pdbqt
 OpenBabel07062320523D

 52 53  0  0  1  0  0  0  0  0999 V2000
   29.7260   39.8190   10.9970 N   0  0  0  0  0  0  0  0  0  0  0  0
   30.0130   40.1430   12.3650 C   0  0  0  0  0  0  0  0  0  0  0  0
   31.1370   40.6450   12.5930 O   0  0  0  0  0  0  0  0  0  0  0  0
   28.7760   39.4160   10.8510 H   0  0  0  0  0  0  0  0  0  0  0  0
   30.6850   40.0740    9.9560 C   0  0  0  0  0  0  0  0  0  0  0  0
   30.4260   39.1390    8.7860 C   0  0  2  0  0  0  0  0  0  0  0  0
   28.9420   38.9130    8.7550 C   0  0  2  0  0  0  0  0  0  0  0  0
   28.4680   37.4900    8.6800 C   0  0  2  0  0  0  0  0  0  0  0  0
   28.8950   35.7200    7.1790 C   0  0  2  0  0  0  0  0  0  0  0  0
   27.4550   35.2710    7.1870 C   0  0  0  0  0  0  0  0  0  0  0  0
   29.0410   37.0180    7.5280 O   0  0  0  0  0  0  0  0  0  0  0  0
   26.6500   36.5480    7.3320 C   0  0  1  0  0  0  0  0  0  0  0  0
   27.0210   37.2380    8.6680 C   0  0  1  0  0  0  0  0  0  0  0  0
   29.3300   35.5510    5.8270 O   0  0  0  0  0  0  0  0  0  0  0  0
   29.9880   36.2590    5.6080 H   0  0  0  0  0  0  0  0  0  0  0  0
   29.7870   34.8650    7.9890 C   0  0  0  0  0  0  0  0  0  0  0  0
   29.2940   33.9940    8.7320 O   0  0  0  0  0  0  0  0  0  0  0  0
   31.1590   35.0110    7.9370 O   0  0  0  0  0  0  0  0  0  0  0  0
   31.7020   34.3510    7.3930 H   0  0  0  0  0  0  0  0  0  0  0  0
   26.7980   37.3970    6.2630 O   0  0  0  0  0  0  0  0  0  0  0  0
   26.2200   38.2020    6.3950 H   0  0  0  0  0  0  0  0  0  0  0  0
   26.5240   36.3520    9.6690 N   0  0  0  0  0  0  0  0  0  0  0  0
   25.2350   36.4790   10.2130 C   0  0  0  0  0  0  0  0  0  0  0  0
   27.1360   35.5900   10.0090 H   0  0  0  0  0  0  0  0  0  0  0  0
   24.7180   35.5560   11.2520 C   0  0  0  0  0  0  0  0  0  0  0  0
   24.4930   37.3970    9.8120 O   0  0  0  0  0  0  0  0  0  0  0  0
   28.4410   39.5380    7.5990 O   0  0  0  0  0  0  0  0  0  0  0  0
   28.5640   40.5250    7.6350 H   0  0  0  0  0  0  0  0  0  0  0  0
   31.0760   37.9400    9.1890 O   0  0  0  0  0  0  0  0  0  0  0  0
   30.5760   37.1860    8.8370 H   0  0  0  0  0  0  0  0  0  0  0  0
   29.1310   39.9280   13.3880 O   0  0  0  0  0  0  0  0  0  0  0  0
   27.9610   39.1770   13.2770 C   0  0  0  0  0  0  0  0  0  0  0  0
   28.1980   37.7290   13.0490 C   0  0  0  0  0  0  0  0  0  0  0  0
   28.3780   36.7960   14.0740 C   0  0  0  0  0  0  0  0  0  0  0  0
   28.2950   37.0210   11.9320 N   0  0  0  0  0  0  0  0  0  0  0  0
   28.5720   35.5930   13.5330 N   0  0  0  0  0  0  0  0  0  0  0  0
   28.5210   35.7400   12.2310 N   0  0  0  0  0  0  0  0  0  0  0  0
   28.8030   34.3710   14.2500 C   0  0  0  0  0  0  0  0  0  0  0  0
   30.0280   33.7370   14.2760 C   0  0  0  0  0  0  0  0  0  0  0  0
   27.7970   33.7920   14.9230 N   0  0  0  0  0  0  0  0  0  0  0  0
   30.2530   32.5650   14.9480 C   0  0  0  0  0  0  0  0  0  0  0  0
   27.9680   32.6440   15.5960 C   0  0  0  0  0  0  0  0  0  0  0  0
   29.1970   31.9930   15.6320 C   0  0  0  0  0  0  0  0  0  0  0  0
   29.3330   30.7200   16.3970 C   0  0  0  0  0  0  0  0  0  0  0  0
   28.9640   29.6610   15.5770 O   0  0  0  0  0  0  0  0  0  0  0  0
   29.7390   29.0600   15.4340 H   0  0  0  0  0  0  0  0  0  0  0  0
   29.8670   25.5550   16.9770 C   0  0  0  0  0  0  0  0  0  0  0  0
   28.3450   25.7220   17.0260 C   0  0  0  0  0  0  0  0  0  0  0  0
   27.6020   24.4000   16.9130 C   0  0  0  0  0  0  0  0  0  0  0  0
   26.5230   24.2660   17.9520 C   0  0  0  0  0  0  0  0  0  0  0  0
   25.1580   24.2690   17.2730 C   0  0  0  0  0  0  0  0  0  0  0  0
   24.5830   22.9030   17.2570 N   0  0  0  0  0  0  0  0  0  0  0  0
  1  2  1  0  0  0  0
  2  3  2  0  0  0  0
  2 31  1  0  0  0  0
  4  1  1  0  0  0  0
  5  1  1  0  0  0  0
  6 29  1  0  0  0  0
  6  5  1  1  0  0  0
  7 27  1  6  0  0  0
  7  6  1  0  0  0  0
  8  7  1  6  0  0  0
  9 14  1  6  0  0  0
  9 10  1  0  0  0  0
  9 11  1  0  0  0  0
  9 16  1  0  0  0  0
 10 12  1  0  0  0  0
 11  8  1  0  0  0  0
 12 20  1  6  0  0  0
 12 13  1  0  0  0  0
 13  8  1  0  0  0  0
 13 22  1  1  0  0  0
 15 14  1  0  0  0  0
 16 17  2  0  0  0  0
 18 16  1  0  0  0  0
 19 18  1  0  0  0  0
 20 21  1  0  0  0  0
 22 24  1  0  0  0  0
 22 23  1  0  0  0  0
 23 25  1  0  0  0  0
 26 23  2  0  0  0  0
 27 28  1  0  0  0  0
 30 29  1  0  0  0  0
 32 31  1  0  0  0  0
 33 32  1  0  0  0  0
 33 34  2  0  0  0  0
 35 37  2  0  0  0  0
 35 33  1  0  0  0  0
 36 34  1  0  0  0  0
 36 38  1  0  0  0  0
 37 36  1  0  0  0  0
 38 39  2  0  0  0  0
 38 40  1  0  0  0  0
 39 41  1  0  0  0  0
 40 42  2  0  0  0  0
 41 43  2  0  0  0  0
 42 43  1  0  0  0  0
 43 44  1  0  0  0  0
 45 44  1  0  0  0  0
 46 45  1  0  0  0  0
 47 48  1  0  0  0  0
 49 48  1  0  0  0  0
 49 50  1  0  0  0  0
 51 50  1  0  0  0  0
 52 51  1  0  0  0  0
M  END
>  <REMARK>
 VINA RESULT:    -4.985      4.407     11.563
 INTER + INTRA:         -14.799
 INTER:                 -10.285
 INTRA:                  -4.514
 UNBOUND:                -5.735
 SMILES CC(=O)N[C@@H]1[C@@H](O)C[C@](O)(C(=O)O)O[C@H]1C(O)[C@H](O)CNC(=O)OCc1cn(-c2ccc(CO)cn2)nn1
 SMILES IDX 21 1 22 2 23 3 20 5 18 6 16 7 15 8 9 9 8 10 14 11 6 12 5 13
 SMILES IDX 10 14 11 16 12 17 13 18 7 20 4 22 2 23 1 25 3 26 17 27 19 29
 SMILES IDX 24 31 25 32 26 33 27 34 38 35 28 36 37 37 29 38 30 39 36 40
 SMILES IDX 31 41 35 42 32 43 33 44 34 45
 H PARENT 21 4 10 15 13 19 7 21 4 24 17 28 19 30 34 46
 Flexibility Score: inf
  4 active torsions:
  status: ('A' for Active; 'I' for Inactive)
    1  A    between atoms: CA   and  CB  
    2  A    between atoms: CB   and  CG  
    3  A    between atoms: CG   and  CD  
    4  A    between atoms: CD   and  CE  

>  <TORSDO>
F 17

>  <BEGIN_>
RES LYS A 131

$$$$
ligand_59_pose_7_2HRL.pdbqt
 OpenBabel07062320523D

  6  5  0  0  0  0  0  0  0  0999 V2000
   33.1930   34.6630    9.2900 C   0  0  0  0  0  0  0  0  0  0  0  0
   32.0600   35.3600   10.0340 C   0  0  0  0  0  0  0  0  0  0  0  0
   31.8990   34.8950   11.4580 C   0  0  0  0  0  0  0  0  0  0  0  0
   32.6720   35.7980   12.4080 C   0  0  0  0  0  0  0  0  0  0  0  0
   31.8940   37.0700   12.6850 C   0  0  0  0  0  0  0  0  0  0  0  0
   31.8320   37.3530   14.1460 N   0  0  0  0  0  0  0  0  0  0  0  0
  1  2  1  0  0  0  0
  2  3  1  0  0  0  0
  3  4  1  0  0  0  0
  4  5  1  0  0  0  0
  5  6  1  0  0  0  0
M  END
>  <EGIN_R>
ES LYS A 135

>  <REMARK>
  4 active torsions:
  status: ('A' for Active; 'I' for Inactive)
    5  A    between atoms: CA   and  CB  
    6  A    between atoms: CB   and  CG  
    7  A    between atoms: CG   and  CD  
    8  A    between atoms: CD   and  CE  

$$$$
