ligand_23_pose_2_2HRL.pdbqt
 OpenBabel07062320523D

 55 56  0  0  1  0  0  0  0  0999 V2000
   25.9420   28.1270   19.0860 N   0  0  0  0  0  0  0  0  0  0  0  0
   25.1030   29.1500   18.5760 C   0  0  0  0  0  0  0  0  0  0  0  0
   24.8780   30.1480   19.2810 O   0  0  0  0  0  0  0  0  0  0  0  0
   26.0910   27.3100   18.4330 H   0  0  0  0  0  0  0  0  0  0  0  0
   26.5480   28.1900   20.3910 C   0  0  0  0  0  0  0  0  0  0  0  0
   28.0420   27.9580   20.3080 C   0  0  2  0  0  0  0  0  0  0  0  0
   28.7450   29.2950   20.1210 C   0  0  1  0  0  0  0  0  0  0  0  0
   30.2160   29.1210   20.4930 C   0  0  2  0  0  0  0  0  0  0  0  0
   30.7760   28.2710   22.5750 C   0  0  2  0  0  0  0  0  0  0  0  0
   32.0460   29.0850   22.6610 C   0  0  0  0  0  0  0  0  0  0  0  0
   30.3860   28.0210   21.2750 O   0  0  0  0  0  0  0  0  0  0  0  0
   32.1390   30.1360   21.6080 C   0  0  1  0  0  0  0  0  0  0  0  0
   30.7340   30.4040   21.0690 C   0  0  1  0  0  0  0  0  0  0  0  0
   29.7300   28.8640   23.2760 O   0  0  0  0  0  0  0  0  0  0  0  0
   29.9110   28.7680   24.2630 H   0  0  0  0  0  0  0  0  0  0  0  0
   31.0590   26.9580   23.2140 C   0  0  0  0  0  0  0  0  0  0  0  0
   32.0650   26.7850   23.9500 O   0  0  0  0  0  0  0  0  0  0  0  0
   30.2240   25.8550   23.0310 O   0  0  0  0  0  0  0  0  0  0  0  0
   29.2170   25.9660   23.0400 H   0  0  0  0  0  0  0  0  0  0  0  0
   32.7320   31.3120   22.0330 O   0  0  0  0  0  0  0  0  0  0  0  0
   33.4010   31.1750   22.7620 H   0  0  0  0  0  0  0  0  0  0  0  0
   30.8220   31.3680   19.9850 N   0  0  0  0  0  0  0  0  0  0  0  0
   30.2550   32.6740   20.0760 C   0  0  0  0  0  0  0  0  0  0  0  0
   31.3240   31.0900   19.0970 H   0  0  0  0  0  0  0  0  0  0  0  0
   30.4060   33.5760   18.9050 C   0  0  0  0  0  0  0  0  0  0  0  0
   29.6680   32.9850   21.1260 O   0  0  0  0  0  0  0  0  0  0  0  0
   28.6740   29.6250   18.7800 O   0  0  0  0  0  0  0  0  0  0  0  0
   28.0560   30.3790   18.6270 H   0  0  0  0  0  0  0  0  0  0  0  0
   28.2930   27.1300   19.2000 O   0  0  0  0  0  0  0  0  0  0  0  0
   28.1420   26.1610   19.4350 H   0  0  0  0  0  0  0  0  0  0  0  0
   24.5290   29.0570   17.3040 O   0  0  0  0  0  0  0  0  0  0  0  0
   24.8040   30.0170   16.3040 C   0  0  0  0  0  0  0  0  0  0  0  0
   26.2700   30.1720   16.1350 C   0  0  0  0  0  0  0  0  0  0  0  0
   26.9180   31.3680   15.8920 C   0  0  0  0  0  0  0  0  0  0  0  0
   27.2220   29.2330   16.1800 N   0  0  0  0  0  0  0  0  0  0  0  0
   28.2220   31.0630   15.8080 N   0  0  0  0  0  0  0  0  0  0  0  0
   28.4190   29.7650   15.9820 N   0  0  0  0  0  0  0  0  0  0  0  0
   29.2730   31.9960   15.5640 C   0  0  0  0  0  0  0  0  0  0  0  0
   29.0460   33.2590   15.0630 C   0  0  0  0  0  0  0  0  0  0  0  0
   30.5880   31.6530   15.8290 C   0  0  0  0  0  0  0  0  0  0  0  0
   30.0790   34.1650   14.8270 C   0  0  0  0  0  0  0  0  0  0  0  0
   31.6190   32.5250   15.6070 C   0  0  0  0  0  0  0  0  0  0  0  0
   31.3620   33.7790   15.1060 C   0  0  0  0  0  0  0  0  0  0  0  0
   29.7880   35.7530   14.1950 S   0  0  0  0  0  0  0  0  0  0  0  0
   30.2340   35.7790   12.7560 O   0  0  0  0  0  0  0  0  0  0  0  0
   30.6560   36.7490   14.9280 O   0  0  0  0  0  0  0  0  0  0  0  0
   28.1270   36.1780   14.2780 N   0  0  0  0  0  0  0  0  0  0  0  0
   27.5610   35.3370   14.4920 H   0  0  0  0  0  0  0  0  0  0  0  0
   27.7920   36.6520   13.4140 H   0  0  0  0  0  0  0  0  0  0  0  0
   29.8670   25.5550   16.9770 C   0  0  0  0  0  0  0  0  0  0  0  0
   28.3450   25.7220   17.0260 C   0  0  0  0  0  0  0  0  0  0  0  0
   27.6010   24.4030   16.8870 C   0  0  0  0  0  0  0  0  0  0  0  0
   26.5420   24.2360   17.9420 C   0  0  0  0  0  0  0  0  0  0  0  0
   25.1740   24.1280   17.2770 C   0  0  0  0  0  0  0  0  0  0  0  0
   24.4570   25.4220   17.3520 N   0  0  0  0  0  0  0  0  0  0  0  0
  1  5  1  0  0  0  0
  2  1  1  0  0  0  0
  2  3  2  0  0  0  0
  4  1  1  0  0  0  0
  6  5  1  6  0  0  0
  7 27  1  6  0  0  0
  7  6  1  0  0  0  0
  8  7  1  1  0  0  0
  8 13  1  0  0  0  0
  8 11  1  0  0  0  0
  9 10  1  0  0  0  0
  9 16  1  1  0  0  0
  9 14  1  0  0  0  0
 11  9  1  0  0  0  0
 12 20  1  1  0  0  0
 12 10  1  0  0  0  0
 13 22  1  6  0  0  0
 13 12  1  0  0  0  0
 14 15  1  0  0  0  0
 16 17  2  0  0  0  0
 18 19  1  0  0  0  0
 18 16  1  0  0  0  0
 20 21  1  0  0  0  0
 22 23  1  0  0  0  0
 23 26  2  0  0  0  0
 24 22  1  0  0  0  0
 25 23  1  0  0  0  0
 28 27  1  0  0  0  0
 29 30  1  0  0  0  0
 29  6  1  0  0  0  0
 31  2  1  0  0  0  0
 32 31  1  0  0  0  0
 33 35  1  0  0  0  0
 33 32  1  0  0  0  0
 34 33  2  0  0  0  0
 36 34  1  0  0  0  0
 36 37  1  0  0  0  0
 37 35  2  0  0  0  0
 38 36  1  0  0  0  0
 38 40  2  0  0  0  0
 39 38  1  0  0  0  0
 41 39  2  0  0  0  0
 41 43  1  0  0  0  0
 42 40  1  0  0  0  0
 43 42  2  0  0  0  0
 44 47  1  0  0  0  0
 44 41  1  0  0  0  0
 44 46  2  0  0  0  0
 45 44  2  0  0  0  0
 47 48  1  0  0  0  0
 49 47  1  0  0  0  0
 50 51  1  0  0  0  0
 52 51  1  0  0  0  0
 52 53  1  0  0  0  0
 54 55  1  0  0  0  0
 54 53  1  0  0  0  0
M  END
>  <REMARK>
 VINA RESULT:    -4.707      4.375     11.475
 INTER + INTRA:         -15.184
 INTER:                  -8.620
 INTRA:                  -6.564
 UNBOUND:                -6.624
 SMILES CC(=O)N[C@@H]1[C@@H](O)C[C@](O)(C(=O)O)O[C@H]1C(O)[C@H](O)CNC(=O)OCc1cn(-c2cccc(S(N)(=O)=O)c2)nn1
 SMILES IDX 21 1 22 2 23 3 20 5 18 6 16 7 15 8 9 9 8 10 14 11 6 12 5 13
 SMILES IDX 10 14 11 16 12 17 13 18 7 20 4 22 2 23 1 25 3 26 17 27 19 29
 SMILES IDX 24 31 25 32 26 33 27 34 40 35 28 36 39 37 29 38 38 39 30 40
 SMILES IDX 33 41 31 42 32 43 34 44 36 45 37 46 35 47
 H PARENT 21 4 10 15 13 19 7 21 4 24 17 28 19 30 35 48 35 49
 Flexibility Score: inf
  4 active torsions:
  status: ('A' for Active; 'I' for Inactive)
    1  A    between atoms: CA   and  CB  
    2  A    between atoms: CB   and  CG  
    3  A    between atoms: CG   and  CD  
    4  A    between atoms: CD   and  CE  

>  <TORSDO>
F 17

>  <BEGIN_>
RES LYS A 131

$$$$
ligand_23_pose_2_2HRL.pdbqt
 OpenBabel07062320523D

  6  5  0  0  0  0  0  0  0  0999 V2000
   33.1930   34.6630    9.2900 C   0  0  0  0  0  0  0  0  0  0  0  0
   32.0600   35.3600   10.0340 C   0  0  0  0  0  0  0  0  0  0  0  0
   30.8020   35.5030    9.2180 C   0  0  0  0  0  0  0  0  0  0  0  0
   30.1230   34.1550    9.0360 C   0  0  0  0  0  0  0  0  0  0  0  0
   28.6660   34.3380    8.6570 C   0  0  0  0  0  0  0  0  0  0  0  0
   27.7690   33.6540    9.6290 N   0  0  0  0  0  0  0  0  0  0  0  0
  1  2  1  0  0  0  0
  3  2  1  0  0  0  0
  4  3  1  0  0  0  0
  5  4  1  0  0  0  0
  5  6  1  0  0  0  0
M  END
>  <EGIN_R>
ES LYS A 135

>  <REMARK>
  4 active torsions:
  status: ('A' for Active; 'I' for Inactive)
    5  A    between atoms: CA   and  CB  
    6  A    between atoms: CB   and  CG  
    7  A    between atoms: CG   and  CD  
    8  A    between atoms: CD   and  CE  

$$$$
