REMARK VINA RESULT:    -3.305      8.344     14.488
REMARK INTER + INTRA:          -6.717
REMARK INTER:                  -3.439
REMARK INTRA:                  -3.278
REMARK UNBOUND:                -3.218
REMARK SMILES Cc1cn(-c2ccc3c(c2)OCO3)nn1
REMARK SMILES IDX 5 1 6 2 7 3 8 4 9 5 10 6 11 7 12 8 13 9 4 10 1 11 2 12 3 13
REMARK SMILES IDX 15 14 14 15
REMARK H PARENT
REMARK Flexibility Score: inf
ROOT
ATOM      1  C   UNL     1      26.250  28.459  18.385  1.00  0.00     0.070 A 
ATOM      2  C   UNL     1      25.730  27.493  19.218  1.00  0.00     0.032 A 
ATOM      3  C   UNL     1      26.446  27.057  20.311  1.00  0.00     0.053 A 
ATOM      4  C   UNL     1      27.702  27.627  20.537  1.00  0.00     0.165 A 
ATOM      5  C   UNL     1      28.228  28.591  19.709  1.00  0.00     0.167 A 
ATOM      6  C   UNL     1      27.489  29.000  18.633  1.00  0.00     0.079 A 
ATOM      7  O   UNL     1      29.497  28.944  20.218  1.00  0.00    -0.454 OA
ATOM      8  C   UNL     1      29.928  27.873  21.037  1.00  0.00     0.468 C 
ATOM      9  O   UNL     1      28.659  27.413  21.528  1.00  0.00    -0.454 OA
ENDROOT
BRANCH   1  10
ATOM     10  N   UNL     1      25.474  28.892  17.249  1.00  0.00    -0.220 N 
ATOM     11  C   UNL     1      24.856  30.843  14.188  1.00  0.00     0.070 C 
ATOM     12  C   UNL     1      24.857  29.946  15.394  1.00  0.00     0.080 A 
ATOM     13  C   UNL     1      25.865  29.789  16.324  1.00  0.00     0.140 A 
ATOM     14  N   UNL     1      23.871  29.124  15.794  1.00  0.00    -0.135 NA
ATOM     15  N   UNL     1      24.267  28.511  16.901  1.00  0.00    -0.062 NA
ENDBRANCH   1  10
TORSDOF 1
BEGIN_RES LYS A 135
REMARK  4 active torsions:
REMARK  status: ('A' for Active; 'I' for Inactive)
REMARK    1  A    between atoms: CA   and  CB  
REMARK    2  A    between atoms: CB   and  CG  
REMARK    3  A    between atoms: CG   and  CD  
REMARK    4  A    between atoms: CD   and  CE  
ROOT
ATOM      1  CA  LYS A 135      33.193  34.663   9.290  1.00 25.02     0.186 C 
ENDROOT
BRANCH   1   2
ATOM      2  CB  LYS A 135      32.060  35.360  10.034  1.00 26.63     0.034 C 
BRANCH   2   3
ATOM      3  CG  LYS A 135      30.824  35.564   9.196  1.00 29.45     0.005 C 
BRANCH   3   4
ATOM      4  CD  LYS A 135      30.210  34.227   8.811  1.00 32.00     0.041 C 
BRANCH   4   5
ATOM      5  CE  LYS A 135      28.727  34.382   8.535  1.00 34.25     0.338 C 
ATOM      6  NZ  LYS A 135      27.913  33.691   9.573  1.00 35.99     0.618 N 
ENDBRANCH   4   5
ENDBRANCH   3   4
ENDBRANCH   2   3
ENDBRANCH   1   2
END_RES LYS A 135
BEGIN_RES TYR A 136
REMARK  2 active torsions:
REMARK  status: ('A' for Active; 'I' for Inactive)
REMARK    5  A    between atoms: CA   and  CB  
REMARK    6  A    between atoms: CB   and  CG  
ROOT
ATOM      7  CA  TYR A 136      36.583  36.399   8.994  1.00 26.14     0.191 C 
ENDROOT
BRANCH   7   8
ATOM      8  CB  TYR A 136      37.367  36.835  10.240  1.00 28.16     0.060 C 
BRANCH   8   9
ATOM      9  CG  TYR A 136      37.172  38.295  10.567  1.00 31.88    -0.020 A 
ATOM     10  CD2 TYR A 136      37.695  38.850  11.737  1.00 32.67    -0.002 A 
ATOM     11  CE2 TYR A 136      37.507  40.208  12.032  1.00 33.89     0.027 A 
ATOM     12  CZ  TYR A 136      36.788  41.016  11.148  1.00 34.34     0.131 A 
ATOM     13  OH  TYR A 136      36.595  42.365  11.416  1.00 35.14    -0.190 OA
ATOM     14  CE1 TYR A 136      36.260  40.481   9.982  1.00 35.01     0.027 A 
ATOM     15  CD1 TYR A 136      36.449  39.127   9.702  1.00 33.57    -0.002 A 
ENDBRANCH   8   9
ENDBRANCH   7   8
END_RES TYR A 136
BEGIN_RES ASN A 133
REMARK  2 active torsions:
REMARK  status: ('A' for Active; 'I' for Inactive)
REMARK    7  A    between atoms: CA   and  CB  
REMARK    8  A    between atoms: CB   and  CG  
ROOT
ATOM     16  CA  ASN A 133      31.225  30.257  11.749  1.00 18.15     0.196 C 
ENDROOT
BRANCH  16  17
ATOM     17  CB  ASN A 133      30.092  31.240  11.460  1.00 18.27     0.126 C 
BRANCH  17  18
ATOM     18  CG  ASN A 133      28.749  30.584  11.367  1.00 18.94     0.276 C 
ATOM     19  OD1 ASN A 133      28.565  29.607  10.639  1.00 18.09    -0.269 OA
ATOM     20  ND2 ASN A 133      27.784  31.123  12.111  1.00 18.93    -0.107 N 
ENDBRANCH  17  18
ENDBRANCH  16  17
END_RES ASN A 133
