REMARK VINA RESULT:    -3.472      3.337      4.884
REMARK INTER + INTRA:          -7.407
REMARK INTER:                  -3.959
REMARK INTRA:                  -3.449
REMARK UNBOUND:                -3.428
REMARK SMILES Cc1cn([C@@H](C)C(=O)O)nn1
REMARK SMILES IDX 5 1 6 2 4 3 1 4 2 5 3 6 11 7 10 8 7 9 8 10 9 11
REMARK H PARENT 9 12
REMARK Flexibility Score: inf
ROOT
ATOM      1  C   UNL     1      34.411  36.050  13.144  1.00  0.00     0.215 C 
ATOM      2  C   UNL     1      34.822  37.000  14.239  1.00  0.00     0.046 C 
ENDROOT
BRANCH   1   3
ATOM      3  N   UNL     1      33.100  35.455  13.422  1.00  0.00    -0.238 N 
ATOM      4  C   UNL     1      29.620  34.606  12.815  1.00  0.00     0.070 C 
ATOM      5  C   UNL     1      31.009  34.797  13.329  1.00  0.00     0.080 A 
ATOM      6  C   UNL     1      32.002  35.495  12.664  1.00  0.00     0.135 A 
ATOM      7  N   UNL     1      31.542  34.358  14.464  1.00  0.00    -0.136 NA
ATOM      8  N   UNL     1      32.803  34.762  14.505  1.00  0.00    -0.066 NA
ENDBRANCH   1   3
BRANCH   1   9
ATOM      9  C   UNL     1      35.414  34.976  13.017  1.00  0.00     0.328 C 
ATOM     10  O   UNL     1      36.629  35.257  13.036  1.00  0.00    -0.250 OA
BRANCH   9  11
ATOM     11  O   UNL     1      35.073  33.639  12.875  1.00  0.00    -0.480 OA
ATOM     12  H   UNL     1      34.722  33.268  11.978  1.00  0.00     0.296 HD
ENDBRANCH   9  11
ENDBRANCH   1   9
TORSDOF 3
BEGIN_RES LYS A 135
REMARK  4 active torsions:
REMARK  status: ('A' for Active; 'I' for Inactive)
REMARK    1  A    between atoms: CA   and  CB  
REMARK    2  A    between atoms: CB   and  CG  
REMARK    3  A    between atoms: CG   and  CD  
REMARK    4  A    between atoms: CD   and  CE  
ROOT
ATOM      1  CA  LYS A 135      33.193  34.663   9.290  1.00 25.02     0.186 C 
ENDROOT
BRANCH   1   2
ATOM      2  CB  LYS A 135      32.060  35.360  10.034  1.00 26.63     0.034 C 
BRANCH   2   3
ATOM      3  CG  LYS A 135      30.803  35.509   9.216  1.00 29.45     0.005 C 
BRANCH   3   4
ATOM      4  CD  LYS A 135      30.117  34.163   9.036  1.00 32.00     0.041 C 
BRANCH   4   5
ATOM      5  CE  LYS A 135      28.657  34.354   8.673  1.00 34.25     0.338 C 
ATOM      6  NZ  LYS A 135      27.767  33.670   9.651  1.00 35.99     0.618 N 
ENDBRANCH   4   5
ENDBRANCH   3   4
ENDBRANCH   2   3
ENDBRANCH   1   2
END_RES LYS A 135
BEGIN_RES TYR A 136
REMARK  2 active torsions:
REMARK  status: ('A' for Active; 'I' for Inactive)
REMARK    5  A    between atoms: CA   and  CB  
REMARK    6  A    between atoms: CB   and  CG  
ROOT
ATOM      7  CA  TYR A 136      36.583  36.399   8.994  1.00 26.14     0.191 C 
ENDROOT
BRANCH   7   8
ATOM      8  CB  TYR A 136      37.367  36.835  10.240  1.00 28.16     0.060 C 
BRANCH   8   9
ATOM      9  CG  TYR A 136      36.953  38.198  10.738  1.00 31.88    -0.020 A 
ATOM     10  CD2 TYR A 136      37.289  38.631  12.023  1.00 32.67    -0.002 A 
ATOM     11  CE2 TYR A 136      36.898  39.898  12.477  1.00 33.89     0.027 A 
ATOM     12  CZ  TYR A 136      36.165  40.740  11.638  1.00 34.34     0.131 A 
ATOM     13  OH  TYR A 136      35.773  42.001  12.064  1.00 35.14    -0.190 OA
ATOM     14  CE1 TYR A 136      35.821  40.325  10.359  1.00 35.01     0.027 A 
ATOM     15  CD1 TYR A 136      36.211  39.059   9.920  1.00 33.57    -0.002 A 
ENDBRANCH   8   9
ENDBRANCH   7   8
END_RES TYR A 136
BEGIN_RES ASN A 133
REMARK  2 active torsions:
REMARK  status: ('A' for Active; 'I' for Inactive)
REMARK    7  A    between atoms: CA   and  CB  
REMARK    8  A    between atoms: CB   and  CG  
ROOT
ATOM     16  CA  ASN A 133      31.225  30.257  11.749  1.00 18.15     0.196 C 
ENDROOT
BRANCH  16  17
ATOM     17  CB  ASN A 133      30.092  31.240  11.460  1.00 18.27     0.126 C 
BRANCH  17  18
ATOM     18  CG  ASN A 133      28.749  30.585  11.370  1.00 18.94     0.276 C 
ATOM     19  OD1 ASN A 133      28.560  29.613  10.635  1.00 18.09    -0.269 OA
ATOM     20  ND2 ASN A 133      27.789  31.117  12.125  1.00 18.93    -0.107 N 
ENDBRANCH  17  18
ENDBRANCH  16  17
END_RES ASN A 133
