REMARK VINA RESULT:    -3.430      6.401      8.705
REMARK INTER + INTRA:          -7.617
REMARK INTER:                  -3.952
REMARK INTRA:                  -3.665
REMARK UNBOUND:                -3.384
REMARK SMILES COCC(C(N)=O)n1cc(C)nn1
REMARK SMILES IDX 3 1 4 2 8 3 11 4 10 5 9 6 12 7 13 8 5 9 7 10 6 11 2 14 1 15
REMARK H PARENT 6 12 6 13
REMARK Flexibility Score: inf
ROOT
ATOM      1  C   UNL     1      37.917  34.836  13.388  1.00  0.00     0.197 C 
ENDROOT
BRANCH   1   2
ATOM      2  C   UNL     1      39.255  35.234  13.999  1.00  0.00     0.223 C 
BRANCH   2   3
ATOM      3  N   UNL     1      39.428  34.647  15.307  1.00  0.00    -0.237 N 
ATOM      4  C   UNL     1      38.616  32.952  18.429  1.00  0.00     0.070 C 
ATOM      5  C   UNL     1      39.205  33.660  17.250  1.00  0.00     0.080 A 
ATOM      6  C   UNL     1      38.541  34.047  16.114  1.00  0.00     0.135 A 
ATOM      7  N   UNL     1      40.486  34.047  17.081  1.00  0.00    -0.136 NA
ATOM      8  N   UNL     1      40.613  34.634  15.923  1.00  0.00    -0.066 NA
ENDBRANCH   2   3
BRANCH   2   9
ATOM      9  C   UNL     1      40.318  34.869  13.060  1.00  0.00     0.244 C 
ATOM     10  O   UNL     1      40.672  35.696  12.181  1.00  0.00    -0.273 OA
ATOM     11  N   UNL     1      40.958  33.606  13.116  1.00  0.00    -0.368 N 
ATOM     12  H   UNL     1      40.964  32.993  13.964  1.00  0.00     0.159 HD
ATOM     13  H   UNL     1      41.479  33.201  12.286  1.00  0.00     0.159 HD
ENDBRANCH   2   9
ENDBRANCH   1   2
BRANCH   1  14
ATOM     14  O   UNL     1      37.994  33.496  13.024  1.00  0.00    -0.382 OA
ATOM     15  C   UNL     1      37.080  33.248  11.986  1.00  0.00     0.195 C 
ENDBRANCH   1  14
TORSDOF 4
BEGIN_RES LYS A 135
REMARK  4 active torsions:
REMARK  status: ('A' for Active; 'I' for Inactive)
REMARK    1  A    between atoms: CA   and  CB  
REMARK    2  A    between atoms: CB   and  CG  
REMARK    3  A    between atoms: CG   and  CD  
REMARK    4  A    between atoms: CD   and  CE  
ROOT
ATOM      1  CA  LYS A 135      33.193  34.663   9.290  1.00 25.02     0.186 C 
ENDROOT
BRANCH   1   2
ATOM      2  CB  LYS A 135      32.060  35.360  10.034  1.00 26.63     0.034 C 
BRANCH   2   3
ATOM      3  CG  LYS A 135      30.731  34.664   9.896  1.00 29.45     0.005 C 
BRANCH   3   4
ATOM      4  CD  LYS A 135      30.361  34.499   8.430  1.00 32.00     0.041 C 
BRANCH   4   5
ATOM      5  CE  LYS A 135      28.855  34.548   8.252  1.00 34.25     0.338 C 
ATOM      6  NZ  LYS A 135      28.158  33.890   9.392  1.00 35.99     0.618 N 
ENDBRANCH   4   5
ENDBRANCH   3   4
ENDBRANCH   2   3
ENDBRANCH   1   2
END_RES LYS A 135
BEGIN_RES TYR A 136
REMARK  2 active torsions:
REMARK  status: ('A' for Active; 'I' for Inactive)
REMARK    5  A    between atoms: CA   and  CB  
REMARK    6  A    between atoms: CB   and  CG  
ROOT
ATOM      7  CA  TYR A 136      36.583  36.399   8.994  1.00 26.14     0.191 C 
ENDROOT
BRANCH   7   8
ATOM      8  CB  TYR A 136      37.367  36.835  10.240  1.00 28.16     0.060 C 
BRANCH   8   9
ATOM      9  CG  TYR A 136      37.111  38.275  10.613  1.00 31.88    -0.020 A 
ATOM     10  CD2 TYR A 136      36.421  39.132   9.753  1.00 32.67    -0.002 A 
ATOM     11  CE2 TYR A 136      36.189  40.468  10.107  1.00 33.89     0.027 A 
ATOM     12  CZ  TYR A 136      36.653  40.951  11.334  1.00 34.34     0.131 A 
ATOM     13  OH  TYR A 136      36.429  42.268  11.709  1.00 35.14    -0.190 OA
ATOM     14  CE1 TYR A 136      37.341  40.113  12.200  1.00 35.01     0.027 A 
ATOM     15  CD1 TYR A 136      37.571  38.786  11.833  1.00 33.57    -0.002 A 
ENDBRANCH   8   9
ENDBRANCH   7   8
END_RES TYR A 136
BEGIN_RES ASN A 133
REMARK  2 active torsions:
REMARK  status: ('A' for Active; 'I' for Inactive)
REMARK    7  A    between atoms: CA   and  CB  
REMARK    8  A    between atoms: CB   and  CG  
ROOT
ATOM     16  CA  ASN A 133      31.225  30.257  11.749  1.00 18.15     0.196 C 
ENDROOT
BRANCH  16  17
ATOM     17  CB  ASN A 133      30.092  31.240  11.460  1.00 18.27     0.126 C 
BRANCH  17  18
ATOM     18  CG  ASN A 133      28.753  30.581  11.342  1.00 18.94     0.276 C 
ATOM     19  OD1 ASN A 133      28.586  29.600  10.616  1.00 18.09    -0.269 OA
ATOM     20  ND2 ASN A 133      27.772  31.122  12.063  1.00 18.93    -0.107 N 
ENDBRANCH  17  18
ENDBRANCH  16  17
END_RES ASN A 133
