REMARK VINA RESULT:    -3.761      4.390      7.037
REMARK INTER + INTRA:          -7.433
REMARK INTER:                  -5.047
REMARK INTRA:                  -2.386
REMARK UNBOUND:                -3.232
REMARK SMILES Cc1cn(Cc2cccc(Br)c2)nn1
REMARK SMILES IDX 5 1 4 2 1 3 2 4 3 5 14 6 13 7 6 8 7 9 12 10 8 11 10 12 9 13
REMARK SMILES IDX 11 14
REMARK H PARENT
REMARK Flexibility Score: inf
ROOT
ATOM      1  C   UNL     1      25.941  35.429   8.852  1.00  0.00     0.181 C 
ENDROOT
BRANCH   1   2
ATOM      2  N   UNL     1      26.655  35.343  10.099  1.00  0.00    -0.248 N 
ATOM      3  C   UNL     1      27.941  36.365  13.358  1.00  0.00     0.070 C 
ATOM      4  C   UNL     1      27.529  35.767  12.081  1.00  0.00     0.080 A 
ATOM      5  C   UNL     1      26.747  36.271  11.068  1.00  0.00     0.134 A 
ATOM      6  N   UNL     1      27.885  34.526  11.670  1.00  0.00    -0.136 NA
ATOM      7  N   UNL     1      27.353  34.286  10.477  1.00  0.00    -0.067 NA
ENDBRANCH   1   2
BRANCH   1   8
ATOM      8  C   UNL     1      26.734  36.045   7.778  1.00  0.00    -0.025 A 
ATOM      9  C   UNL     1      27.694  35.275   7.142  1.00  0.00     0.006 A 
ATOM     10  C   UNL     1      26.595  37.347   7.350  1.00  0.00     0.021 A 
ATOM     11  C   UNL     1      28.481  35.773   6.125  1.00  0.00     0.002 A 
ATOM     12  C   UNL     1      27.380  37.858   6.331  1.00  0.00     0.018 A 
ATOM     13  C   UNL     1      28.330  37.067   5.714  1.00  0.00     0.016 A 
ATOM     14  Br  UNL     1      27.116  39.667   5.807  1.00  0.00    -0.051 Br
ENDBRANCH   1   8
TORSDOF 2
BEGIN_RES LYS A 135
REMARK  4 active torsions:
REMARK  status: ('A' for Active; 'I' for Inactive)
REMARK    1  A    between atoms: CA   and  CB  
REMARK    2  A    between atoms: CB   and  CG  
REMARK    3  A    between atoms: CG   and  CD  
REMARK    4  A    between atoms: CD   and  CE  
ROOT
ATOM      1  CA  LYS A 135      33.193  34.663   9.290  1.00 25.02     0.186 C 
ENDROOT
BRANCH   1   2
ATOM      2  CB  LYS A 135      32.060  35.360  10.034  1.00 26.63     0.034 C 
BRANCH   2   3
ATOM      3  CG  LYS A 135      30.757  35.369   9.276  1.00 29.45     0.005 C 
BRANCH   3   4
ATOM      4  CD  LYS A 135      30.050  36.705   9.440  1.00 32.00     0.041 C 
BRANCH   4   5
ATOM      5  CE  LYS A 135      31.025  37.851   9.244  1.00 34.25     0.338 C 
ATOM      6  NZ  LYS A 135      30.660  38.669   8.055  1.00 35.99     0.618 N 
ENDBRANCH   4   5
ENDBRANCH   3   4
ENDBRANCH   2   3
ENDBRANCH   1   2
END_RES LYS A 135
BEGIN_RES TYR A 136
REMARK  2 active torsions:
REMARK  status: ('A' for Active; 'I' for Inactive)
REMARK    5  A    between atoms: CA   and  CB  
REMARK    6  A    between atoms: CB   and  CG  
ROOT
ATOM      7  CA  TYR A 136      36.583  36.399   8.994  1.00 26.14     0.191 C 
ENDROOT
BRANCH   7   8
ATOM      8  CB  TYR A 136      37.367  36.835  10.240  1.00 28.16     0.060 C 
BRANCH   8   9
ATOM      9  CG  TYR A 136      37.197  38.302  10.549  1.00 31.88    -0.020 A 
ATOM     10  CD2 TYR A 136      36.468  39.140   9.701  1.00 32.67    -0.002 A 
ATOM     11  CE2 TYR A 136      36.317  40.502   9.996  1.00 33.89     0.027 A 
ATOM     12  CZ  TYR A 136      36.901  41.030  11.150  1.00 34.34     0.131 A 
ATOM     13  OH  TYR A 136      36.758  42.374  11.466  1.00 35.14    -0.190 OA
ATOM     14  CE1 TYR A 136      37.629  40.213  12.003  1.00 35.01     0.027 A 
ATOM     15  CD1 TYR A 136      37.777  38.859  11.695  1.00 33.57    -0.002 A 
ENDBRANCH   8   9
ENDBRANCH   7   8
END_RES TYR A 136
BEGIN_RES ASN A 133
REMARK  2 active torsions:
REMARK  status: ('A' for Active; 'I' for Inactive)
REMARK    7  A    between atoms: CA   and  CB  
REMARK    8  A    between atoms: CB   and  CG  
ROOT
ATOM     16  CA  ASN A 133      31.225  30.257  11.749  1.00 18.15     0.196 C 
ENDROOT
BRANCH  16  17
ATOM     17  CB  ASN A 133      30.092  31.240  11.460  1.00 18.27     0.126 C 
BRANCH  17  18
ATOM     18  CG  ASN A 133      28.750  30.583  11.358  1.00 18.94     0.276 C 
ATOM     19  OD1 ASN A 133      28.564  29.626  10.605  1.00 18.09    -0.269 OA
ATOM     20  ND2 ASN A 133      27.790  31.098  12.125  1.00 18.93    -0.107 N 
ENDBRANCH  17  18
ENDBRANCH  16  17
END_RES ASN A 133
