REMARK VINA RESULT:    -4.339      8.130     14.619
REMARK INTER + INTRA:          -7.811
REMARK INTER:                  -4.730
REMARK INTRA:                  -3.081
REMARK UNBOUND:                -3.218
REMARK SMILES Cc1cn(-c2ccc3c(c2)OCO3)nn1
REMARK SMILES IDX 5 1 6 2 7 3 8 4 9 5 10 6 11 7 12 8 13 9 4 10 1 11 2 12 3 13
REMARK SMILES IDX 15 14 14 15
REMARK H PARENT
REMARK Flexibility Score: inf
ROOT
ATOM      1  C   UNL     1      36.280  34.750  13.796  1.00  0.00     0.070 A 
ATOM      2  C   UNL     1      36.369  35.567  14.902  1.00  0.00     0.032 A 
ATOM      3  C   UNL     1      35.247  36.195  15.395  1.00  0.00     0.053 A 
ATOM      4  C   UNL     1      34.033  35.975  14.739  1.00  0.00     0.165 A 
ATOM      5  C   UNL     1      33.937  35.162  13.633  1.00  0.00     0.167 A 
ATOM      6  C   UNL     1      35.071  34.553  13.170  1.00  0.00     0.079 A 
ATOM      7  O   UNL     1      32.586  35.159  13.223  1.00  0.00    -0.454 OA
ATOM      8  C   UNL     1      31.986  36.322  13.763  1.00  0.00     0.468 C 
ATOM      9  O   UNL     1      32.744  36.449  14.976  1.00  0.00    -0.454 OA
ENDROOT
BRANCH   1  10
ATOM     10  N   UNL     1      37.474  34.108  13.304  1.00  0.00    -0.220 N 
ATOM     11  C   UNL     1      41.080  33.877  12.602  1.00  0.00     0.070 C 
ATOM     12  C   UNL     1      39.596  33.721  12.776  1.00  0.00     0.080 A 
ATOM     13  C   UNL     1      38.716  34.626  13.336  1.00  0.00     0.140 A 
ATOM     14  N   UNL     1      38.843  32.666  12.419  1.00  0.00    -0.135 NA
ATOM     15  N   UNL     1      37.585  32.926  12.745  1.00  0.00    -0.062 NA
ENDBRANCH   1  10
TORSDOF 1
BEGIN_RES LYS A 135
REMARK  4 active torsions:
REMARK  status: ('A' for Active; 'I' for Inactive)
REMARK    1  A    between atoms: CA   and  CB  
REMARK    2  A    between atoms: CB   and  CG  
REMARK    3  A    between atoms: CG   and  CD  
REMARK    4  A    between atoms: CD   and  CE  
ROOT
ATOM      1  CA  LYS A 135      33.193  34.663   9.290  1.00 25.02     0.186 C 
ENDROOT
BRANCH   1   2
ATOM      2  CB  LYS A 135      32.060  35.360  10.034  1.00 26.63     0.034 C 
BRANCH   2   3
ATOM      3  CG  LYS A 135      30.704  34.759   9.767  1.00 29.45     0.005 C 
BRANCH   3   4
ATOM      4  CD  LYS A 135      30.561  34.388   8.299  1.00 32.00     0.041 C 
BRANCH   4   5
ATOM      5  CE  LYS A 135      29.408  35.145   7.668  1.00 34.25     0.338 C 
ATOM      6  NZ  LYS A 135      28.101  34.681   8.210  1.00 35.99     0.618 N 
ENDBRANCH   4   5
ENDBRANCH   3   4
ENDBRANCH   2   3
ENDBRANCH   1   2
END_RES LYS A 135
BEGIN_RES TYR A 136
REMARK  2 active torsions:
REMARK  status: ('A' for Active; 'I' for Inactive)
REMARK    5  A    between atoms: CA   and  CB  
REMARK    6  A    between atoms: CB   and  CG  
ROOT
ATOM      7  CA  TYR A 136      36.583  36.399   8.994  1.00 26.14     0.191 C 
ENDROOT
BRANCH   7   8
ATOM      8  CB  TYR A 136      37.367  36.835  10.240  1.00 28.16     0.060 C 
BRANCH   8   9
ATOM      9  CG  TYR A 136      36.807  38.087  10.869  1.00 31.88    -0.020 A 
ATOM     10  CD2 TYR A 136      36.987  39.338  10.275  1.00 32.67    -0.002 A 
ATOM     11  CE2 TYR A 136      36.465  40.495  10.869  1.00 33.89     0.027 A 
ATOM     12  CZ  TYR A 136      35.755  40.399  12.068  1.00 34.34     0.131 A 
ATOM     13  OH  TYR A 136      35.222  41.531  12.670  1.00 35.14    -0.190 OA
ATOM     14  CE1 TYR A 136      35.567  39.165  12.673  1.00 35.01     0.027 A 
ATOM     15  CD1 TYR A 136      36.098  38.020  12.076  1.00 33.57    -0.002 A 
ENDBRANCH   8   9
ENDBRANCH   7   8
END_RES TYR A 136
BEGIN_RES ASN A 133
REMARK  2 active torsions:
REMARK  status: ('A' for Active; 'I' for Inactive)
REMARK    7  A    between atoms: CA   and  CB  
REMARK    8  A    between atoms: CB   and  CG  
ROOT
ATOM     16  CA  ASN A 133      31.225  30.257  11.749  1.00 18.15     0.196 C 
ENDROOT
BRANCH  16  17
ATOM     17  CB  ASN A 133      30.092  31.240  11.460  1.00 18.27     0.126 C 
BRANCH  17  18
ATOM     18  CG  ASN A 133      28.751  30.583  11.357  1.00 18.94     0.276 C 
ATOM     19  OD1 ASN A 133      28.573  29.605  10.628  1.00 18.09    -0.269 OA
ATOM     20  ND2 ASN A 133      27.780  31.121  12.093  1.00 18.93    -0.107 N 
ENDBRANCH  17  18
ENDBRANCH  16  17
END_RES ASN A 133
