REMARK VINA RESULT:    -3.741      5.205     10.942
REMARK INTER + INTRA:          -6.743
REMARK INTER:                  -3.676
REMARK INTRA:                  -3.067
REMARK UNBOUND:                -2.784
REMARK SMILES Cc1cc(C)c(-n2cc(C)nn2)c(C)c1
REMARK SMILES IDX 6 1 4 2 5 3 3 4 2 5 1 6 15 7 13 8 14 9 7 10 10 11 9 12 8 13
REMARK SMILES IDX 11 14 12 15
REMARK H PARENT
REMARK Flexibility Score: inf
ROOT
ATOM      1  C   UNL     1      23.949  30.104  14.781  1.00  0.00     0.072 A 
ATOM      2  C   UNL     1      23.168  28.993  15.035  1.00  0.00    -0.025 A 
ATOM      3  C   UNL     1      23.372  28.208  16.295  1.00  0.00     0.047 C 
ATOM      4  C   UNL     1      22.190  28.594  14.129  1.00  0.00     0.009 A 
ATOM      5  C   UNL     1      21.970  29.288  12.957  1.00  0.00    -0.050 A 
ATOM      6  C   UNL     1      20.915  28.851  11.987  1.00  0.00     0.044 C 
ATOM      7  C   UNL     1      22.738  30.391  12.696  1.00  0.00     0.009 A 
ATOM      8  C   UNL     1      23.708  30.789  13.591  1.00  0.00    -0.025 A 
ATOM      9  C   UNL     1      24.531  31.986  13.292  1.00  0.00     0.047 C 
ENDROOT
BRANCH   1  10
ATOM     10  N   UNL     1      24.958  30.536  15.691  1.00  0.00    -0.220 N 
ATOM     11  C   UNL     1      28.253  30.764  17.258  1.00  0.00     0.070 C 
ATOM     12  C   UNL     1      26.849  30.844  16.800  1.00  0.00     0.080 A 
ATOM     13  C   UNL     1      26.244  30.169  15.762  1.00  0.00     0.140 A 
ATOM     14  N   UNL     1      25.884  31.620  17.340  1.00  0.00    -0.135 NA
ATOM     15  N   UNL     1      24.770  31.426  16.672  1.00  0.00    -0.062 NA
ENDBRANCH   1  10
TORSDOF 1
BEGIN_RES LYS A 135
REMARK  4 active torsions:
REMARK  status: ('A' for Active; 'I' for Inactive)
REMARK    1  A    between atoms: CA   and  CB  
REMARK    2  A    between atoms: CB   and  CG  
REMARK    3  A    between atoms: CG   and  CD  
REMARK    4  A    between atoms: CD   and  CE  
ROOT
ATOM      1  CA  LYS A 135      33.193  34.663   9.290  1.00 25.02     0.186 C 
ENDROOT
BRANCH   1   2
ATOM      2  CB  LYS A 135      32.060  35.360  10.034  1.00 26.63     0.034 C 
BRANCH   2   3
ATOM      3  CG  LYS A 135      30.695  34.817   9.699  1.00 29.45     0.005 C 
BRANCH   3   4
ATOM      4  CD  LYS A 135      30.572  34.560   8.205  1.00 32.00     0.041 C 
BRANCH   4   5
ATOM      5  CE  LYS A 135      29.180  34.915   7.717  1.00 34.25     0.338 C 
ATOM      6  NZ  LYS A 135      28.138  34.397   8.646  1.00 35.99     0.618 N 
ENDBRANCH   4   5
ENDBRANCH   3   4
ENDBRANCH   2   3
ENDBRANCH   1   2
END_RES LYS A 135
BEGIN_RES TYR A 136
REMARK  2 active torsions:
REMARK  status: ('A' for Active; 'I' for Inactive)
REMARK    5  A    between atoms: CA   and  CB  
REMARK    6  A    between atoms: CB   and  CG  
ROOT
ATOM      7  CA  TYR A 136      36.583  36.399   8.994  1.00 26.14     0.191 C 
ENDROOT
BRANCH   7   8
ATOM      8  CB  TYR A 136      37.367  36.835  10.240  1.00 28.16     0.060 C 
BRANCH   8   9
ATOM      9  CG  TYR A 136      37.196  38.302  10.549  1.00 31.88    -0.020 A 
ATOM     10  CD2 TYR A 136      38.177  39.233  10.200  1.00 32.67    -0.002 A 
ATOM     11  CE2 TYR A 136      38.009  40.594  10.494  1.00 33.89     0.027 A 
ATOM     12  CZ  TYR A 136      36.850  41.026  11.142  1.00 34.34     0.131 A 
ATOM     13  OH  TYR A 136      36.659  42.369  11.436  1.00 35.14    -0.190 OA
ATOM     14  CE1 TYR A 136      35.866  40.114  11.497  1.00 35.01     0.027 A 
ATOM     15  CD1 TYR A 136      36.047  38.761  11.205  1.00 33.57    -0.002 A 
ENDBRANCH   8   9
ENDBRANCH   7   8
END_RES TYR A 136
BEGIN_RES ASN A 133
REMARK  2 active torsions:
REMARK  status: ('A' for Active; 'I' for Inactive)
REMARK    7  A    between atoms: CA   and  CB  
REMARK    8  A    between atoms: CB   and  CG  
ROOT
ATOM     16  CA  ASN A 133      31.225  30.257  11.749  1.00 18.15     0.196 C 
ENDROOT
BRANCH  16  17
ATOM     17  CB  ASN A 133      30.092  31.240  11.460  1.00 18.27     0.126 C 
BRANCH  17  18
ATOM     18  CG  ASN A 133      28.751  30.582  11.353  1.00 18.94     0.276 C 
ATOM     19  OD1 ASN A 133      28.569  29.622  10.602  1.00 18.09    -0.269 OA
ATOM     20  ND2 ASN A 133      27.786  31.101  12.112  1.00 18.93    -0.107 N 
ENDBRANCH  17  18
ENDBRANCH  16  17
END_RES ASN A 133
