REMARK VINA RESULT:    -5.615      3.635      9.084
REMARK INTER + INTRA:          -9.261
REMARK INTER:                  -5.605
REMARK INTRA:                  -3.656
REMARK UNBOUND:                -2.333
REMARK SMILES Cc1cn(-c2ccc(S(=O)(=O)Nc3nccs3)cc2)nn1
REMARK SMILES IDX 9 1 10 2 11 3 8 4 5 5 6 6 19 7 7 8 18 9 4 10 1 11 2 12 3 13
REMARK SMILES IDX 21 14 20 15 12 16 13 18 14 19 17 20 15 21 16 22
REMARK H PARENT 12 17
REMARK Flexibility Score: inf
ROOT
ATOM      1  S   UNL     1      41.409  33.976  12.382  1.00  0.00     0.263 S 
ATOM      2  O   UNL     1      42.344  33.411  11.365  1.00  0.00    -0.201 OA
ATOM      3  O   UNL     1      42.074  33.908  13.742  1.00  0.00    -0.201 OA
ENDROOT
BRANCH   1   4
ATOM      4  C   UNL     1      41.166  35.665  11.989  1.00  0.00     0.088 A 
ATOM      5  C   UNL     1      40.796  38.328  11.494  1.00  0.00     0.066 A 
ATOM      6  C   UNL     1      40.992  37.893  12.776  1.00  0.00     0.030 A 
ATOM      7  C   UNL     1      40.786  37.433  10.463  1.00  0.00     0.030 A 
ATOM      8  C   UNL     1      41.179  36.567  13.049  1.00  0.00     0.024 A 
ATOM      9  C   UNL     1      40.971  36.101  10.713  1.00  0.00     0.024 A 
BRANCH   5  10
ATOM     10  N   UNL     1      40.608  39.748  11.305  1.00  0.00    -0.220 N 
ATOM     11  C   UNL     1      40.126  42.824   9.363  1.00  0.00     0.070 C 
ATOM     12  C   UNL     1      40.312  41.732  10.351  1.00  0.00     0.080 A 
ATOM     13  C   UNL     1      40.472  40.381  10.127  1.00  0.00     0.140 A 
ATOM     14  N   UNL     1      40.360  41.863  11.689  1.00  0.00    -0.135 NA
ATOM     15  N   UNL     1      40.537  40.673  12.234  1.00  0.00    -0.062 NA
ENDBRANCH   5  10
ENDBRANCH   1   4
BRANCH   1  16
ATOM     16  N   UNL     1      39.934  33.125  12.420  1.00  0.00    -0.255 N 
ATOM     17  H   UNL     1      39.912  32.161  11.988  1.00  0.00     0.182 HD
BRANCH  16  18
ATOM     18  C   UNL     1      38.767  33.709  13.018  1.00  0.00     0.196 A 
ATOM     19  N   UNL     1      38.444  34.286  13.935  1.00  0.00    -0.228 NA
ATOM     20  S   UNL     1      37.131  33.543  12.076  1.00  0.00    -0.105 S 
ATOM     21  C   UNL     1      37.261  34.736  14.288  1.00  0.00     0.125 A 
ATOM     22  C   UNL     1      36.250  34.476  13.422  1.00  0.00     0.089 A 
ENDBRANCH  16  18
ENDBRANCH   1  16
TORSDOF 4
BEGIN_RES LYS A 135
REMARK  4 active torsions:
REMARK  status: ('A' for Active; 'I' for Inactive)
REMARK    1  A    between atoms: CA   and  CB  
REMARK    2  A    between atoms: CB   and  CG  
REMARK    3  A    between atoms: CG   and  CD  
REMARK    4  A    between atoms: CD   and  CE  
ROOT
ATOM      1  CA  LYS A 135      33.193  34.663   9.290  1.00 25.02     0.186 C 
ENDROOT
BRANCH   1   2
ATOM      2  CB  LYS A 135      32.060  35.360  10.034  1.00 26.63     0.034 C 
BRANCH   2   3
ATOM      3  CG  LYS A 135      30.844  35.611   9.181  1.00 29.45     0.005 C 
BRANCH   3   4
ATOM      4  CD  LYS A 135      30.243  34.298   8.703  1.00 32.00     0.041 C 
BRANCH   4   5
ATOM      5  CE  LYS A 135      28.747  34.442   8.493  1.00 34.25     0.338 C 
ATOM      6  NZ  LYS A 135      27.986  33.720   9.550  1.00 35.99     0.618 N 
ENDBRANCH   4   5
ENDBRANCH   3   4
ENDBRANCH   2   3
ENDBRANCH   1   2
END_RES LYS A 135
BEGIN_RES TYR A 136
REMARK  2 active torsions:
REMARK  status: ('A' for Active; 'I' for Inactive)
REMARK    5  A    between atoms: CA   and  CB  
REMARK    6  A    between atoms: CB   and  CG  
ROOT
ATOM      7  CA  TYR A 136      36.583  36.399   8.994  1.00 26.14     0.191 C 
ENDROOT
BRANCH   7   8
ATOM      8  CB  TYR A 136      37.367  36.835  10.240  1.00 28.16     0.060 C 
BRANCH   8   9
ATOM      9  CG  TYR A 136      37.172  38.295  10.567  1.00 31.88    -0.020 A 
ATOM     10  CD2 TYR A 136      37.171  38.746  11.889  1.00 32.67    -0.002 A 
ATOM     11  CE2 TYR A 136      36.987  40.105  12.182  1.00 33.89     0.027 A 
ATOM     12  CZ  TYR A 136      36.802  41.020  11.142  1.00 34.34     0.131 A 
ATOM     13  OH  TYR A 136      36.625  42.370  11.409  1.00 35.14    -0.190 OA
ATOM     14  CE1 TYR A 136      36.798  40.589   9.824  1.00 35.01     0.027 A 
ATOM     15  CD1 TYR A 136      36.976  39.232   9.545  1.00 33.57    -0.002 A 
ENDBRANCH   8   9
ENDBRANCH   7   8
END_RES TYR A 136
BEGIN_RES ASN A 133
REMARK  2 active torsions:
REMARK  status: ('A' for Active; 'I' for Inactive)
REMARK    7  A    between atoms: CA   and  CB  
REMARK    8  A    between atoms: CB   and  CG  
ROOT
ATOM     16  CA  ASN A 133      31.225  30.257  11.749  1.00 18.15     0.196 C 
ENDROOT
BRANCH  16  17
ATOM     17  CB  ASN A 133      30.092  31.240  11.460  1.00 18.27     0.126 C 
BRANCH  17  18
ATOM     18  CG  ASN A 133      28.750  30.584  11.364  1.00 18.94     0.276 C 
ATOM     19  OD1 ASN A 133      28.566  29.610  10.631  1.00 18.09    -0.269 OA
ATOM     20  ND2 ASN A 133      27.785  31.118  12.112  1.00 18.93    -0.107 N 
ENDBRANCH  17  18
ENDBRANCH  16  17
END_RES ASN A 133
