REMARK VINA RESULT:    -3.687      8.985     14.634
REMARK INTER + INTRA:          -7.904
REMARK INTER:                  -4.361
REMARK INTRA:                  -3.543
REMARK UNBOUND:                -2.924
REMARK SMILES Cc1cn([C@@H](CCC(=O)O)C(=O)O)nn1
REMARK SMILES IDX 6 1 5 2 4 3 1 4 2 5 3 6 15 7 14 8 11 9 12 10 13 11 7 13 8 14
REMARK SMILES IDX 9 15 10 16
REMARK H PARENT 13 12 10 17
REMARK Flexibility Score: inf
ROOT
ATOM      1  C   UNL     1      30.025  32.346  16.313  1.00  0.00     0.051 C 
ENDROOT
BRANCH   1   2
ATOM      2  C   UNL     1      29.840  31.063  17.080  1.00  0.00     0.219 C 
BRANCH   2   3
ATOM      3  N   UNL     1      28.496  30.546  16.967  1.00  0.00    -0.238 N 
ATOM      4  C   UNL     1      25.213  30.154  15.415  1.00  0.00     0.070 C 
ATOM      5  C   UNL     1      26.447  30.133  16.246  1.00  0.00     0.080 A 
ATOM      6  C   UNL     1      27.593  30.820  15.983  1.00  0.00     0.135 A 
ATOM      7  N   UNL     1      26.660  29.447  17.383  1.00  0.00    -0.136 NA
ATOM      8  N   UNL     1      27.877  29.700  17.801  1.00  0.00    -0.066 NA
ENDBRANCH   2   3
BRANCH   2   9
ATOM      9  C   UNL     1      30.256  31.150  18.476  1.00  0.00     0.328 C 
ATOM     10  O   UNL     1      30.420  32.272  19.004  1.00  0.00    -0.250 OA
BRANCH   9  11
ATOM     11  O   UNL     1      30.482  30.034  19.257  1.00  0.00    -0.480 OA
ATOM     12  H   UNL     1      30.886  30.100  20.202  1.00  0.00     0.296 HD
ENDBRANCH   9  11
ENDBRANCH   2   9
ENDBRANCH   1   2
BRANCH   1  13
ATOM     13  C   UNL     1      31.256  32.315  15.435  1.00  0.00     0.125 C 
BRANCH  13  14
ATOM     14  C   UNL     1      32.022  33.579  15.589  1.00  0.00     0.303 C 
ATOM     15  O   UNL     1      32.028  34.232  16.662  1.00  0.00    -0.252 OA
BRANCH  14  16
ATOM     16  O   UNL     1      32.768  34.095  14.538  1.00  0.00    -0.481 OA
ATOM     17  H   UNL     1      32.494  33.941  13.562  1.00  0.00     0.296 HD
ENDBRANCH  14  16
ENDBRANCH  13  14
ENDBRANCH   1  13
TORSDOF 7
BEGIN_RES LYS A 135
REMARK  4 active torsions:
REMARK  status: ('A' for Active; 'I' for Inactive)
REMARK    1  A    between atoms: CA   and  CB  
REMARK    2  A    between atoms: CB   and  CG  
REMARK    3  A    between atoms: CG   and  CD  
REMARK    4  A    between atoms: CD   and  CE  
ROOT
ATOM      1  CA  LYS A 135      33.193  34.663   9.290  1.00 25.02     0.186 C 
ENDROOT
BRANCH   1   2
ATOM      2  CB  LYS A 135      32.060  35.360  10.034  1.00 26.63     0.034 C 
BRANCH   2   3
ATOM      3  CG  LYS A 135      30.716  34.711   9.829  1.00 29.45     0.005 C 
BRANCH   3   4
ATOM      4  CD  LYS A 135      30.250  34.883   8.392  1.00 32.00     0.041 C 
BRANCH   4   5
ATOM      5  CE  LYS A 135      28.780  34.532   8.263  1.00 34.25     0.338 C 
ATOM      6  NZ  LYS A 135      28.293  33.810   9.471  1.00 35.99     0.618 N 
ENDBRANCH   4   5
ENDBRANCH   3   4
ENDBRANCH   2   3
ENDBRANCH   1   2
END_RES LYS A 135
BEGIN_RES TYR A 136
REMARK  2 active torsions:
REMARK  status: ('A' for Active; 'I' for Inactive)
REMARK    5  A    between atoms: CA   and  CB  
REMARK    6  A    between atoms: CB   and  CG  
ROOT
ATOM      7  CA  TYR A 136      36.583  36.399   8.994  1.00 26.14     0.191 C 
ENDROOT
BRANCH   7   8
ATOM      8  CB  TYR A 136      37.367  36.835  10.240  1.00 28.16     0.060 C 
BRANCH   8   9
ATOM      9  CG  TYR A 136      36.810  38.090  10.866  1.00 31.88    -0.020 A 
ATOM     10  CD2 TYR A 136      36.265  39.109  10.082  1.00 32.67    -0.002 A 
ATOM     11  CE2 TYR A 136      35.752  40.272  10.673  1.00 33.89     0.027 A 
ATOM     12  CZ  TYR A 136      35.786  40.416  12.062  1.00 34.34     0.131 A 
ATOM     13  OH  TYR A 136      35.277  41.556  12.670  1.00 35.14    -0.190 OA
ATOM     14  CE1 TYR A 136      36.325  39.415  12.856  1.00 35.01     0.027 A 
ATOM     15  CD1 TYR A 136      36.838  38.264  12.256  1.00 33.57    -0.002 A 
ENDBRANCH   8   9
ENDBRANCH   7   8
END_RES TYR A 136
BEGIN_RES ASN A 133
REMARK  2 active torsions:
REMARK  status: ('A' for Active; 'I' for Inactive)
REMARK    7  A    between atoms: CA   and  CB  
REMARK    8  A    between atoms: CB   and  CG  
ROOT
ATOM     16  CA  ASN A 133      31.225  30.257  11.749  1.00 18.15     0.196 C 
ENDROOT
BRANCH  16  17
ATOM     17  CB  ASN A 133      30.092  31.240  11.460  1.00 18.27     0.126 C 
BRANCH  17  18
ATOM     18  CG  ASN A 133      28.748  30.585  11.373  1.00 18.94     0.276 C 
ATOM     19  OD1 ASN A 133      28.558  29.615  10.637  1.00 18.09    -0.269 OA
ATOM     20  ND2 ASN A 133      27.790  31.117  12.131  1.00 18.93    -0.107 N 
ENDBRANCH  17  18
ENDBRANCH  16  17
END_RES ASN A 133
