REMARK VINA RESULT:    -3.908      6.185      8.636
REMARK INTER + INTRA:          -7.796
REMARK INTER:                  -4.431
REMARK INTRA:                  -3.365
REMARK UNBOUND:                -3.432
REMARK SMILES Cc1cn(-c2ccccc2C(C)C)nn1
REMARK SMILES IDX 5 1 10 2 9 3 8 4 7 5 6 6 4 7 1 8 2 9 3 10 15 11 14 12 11 13
REMARK SMILES IDX 12 14 13 15
REMARK H PARENT
REMARK Flexibility Score: inf
ROOT
ATOM      1  C   UNL     1      38.144  37.644   3.141  1.00  0.00     0.070 A 
ATOM      2  C   UNL     1      37.003  38.150   3.720  1.00  0.00    -0.020 A 
ATOM      3  C   UNL     1      35.884  38.400   2.934  1.00  0.00     0.006 A 
ATOM      4  C   UNL     1      35.853  38.165   1.581  1.00  0.00     0.000 A 
ATOM      5  C   UNL     1      36.997  37.657   0.998  1.00  0.00     0.002 A 
ATOM      6  C   UNL     1      38.105  37.407   1.767  1.00  0.00     0.029 A 
ENDROOT
BRANCH   1   7
ATOM      7  N   UNL     1      39.330  37.360   3.894  1.00  0.00    -0.220 N 
ATOM      8  C   UNL     1      42.528  38.064   5.544  1.00  0.00     0.070 C 
ATOM      9  C   UNL     1      41.287  37.507   4.973  1.00  0.00     0.080 A 
ATOM     10  C   UNL     1      40.313  38.203   4.252  1.00  0.00     0.140 A 
ATOM     11  N   UNL     1      40.821  36.229   5.013  1.00  0.00    -0.135 NA
ATOM     12  N   UNL     1      39.679  36.178   4.375  1.00  0.00    -0.062 NA
ENDBRANCH   1   7
BRANCH   2  13
ATOM     13  C   UNL     1      37.003  38.421   5.177  1.00  0.00     0.015 C 
ATOM     14  C   UNL     1      35.629  38.107   5.760  1.00  0.00     0.012 C 
ATOM     15  C   UNL     1      37.282  39.902   5.442  1.00  0.00     0.012 C 
ENDBRANCH   2  13
TORSDOF 2
BEGIN_RES LYS A 135
REMARK  4 active torsions:
REMARK  status: ('A' for Active; 'I' for Inactive)
REMARK    1  A    between atoms: CA   and  CB  
REMARK    2  A    between atoms: CB   and  CG  
REMARK    3  A    between atoms: CG   and  CD  
REMARK    4  A    between atoms: CD   and  CE  
ROOT
ATOM      1  CA  LYS A 135      33.193  34.663   9.290  1.00 25.02     0.186 C 
ENDROOT
BRANCH   1   2
ATOM      2  CB  LYS A 135      32.060  35.360  10.034  1.00 26.63     0.034 C 
BRANCH   2   3
ATOM      3  CG  LYS A 135      30.725  34.680   9.872  1.00 29.45     0.005 C 
BRANCH   3   4
ATOM      4  CD  LYS A 135      30.352  34.574   8.401  1.00 32.00     0.041 C 
BRANCH   4   5
ATOM      5  CE  LYS A 135      28.845  34.556   8.234  1.00 34.25     0.338 C 
ATOM      6  NZ  LYS A 135      28.188  33.842   9.364  1.00 35.99     0.618 N 
ENDBRANCH   4   5
ENDBRANCH   3   4
ENDBRANCH   2   3
ENDBRANCH   1   2
END_RES LYS A 135
BEGIN_RES TYR A 136
REMARK  2 active torsions:
REMARK  status: ('A' for Active; 'I' for Inactive)
REMARK    5  A    between atoms: CA   and  CB  
REMARK    6  A    between atoms: CB   and  CG  
ROOT
ATOM      7  CA  TYR A 136      36.583  36.399   8.994  1.00 26.14     0.191 C 
ENDROOT
BRANCH   7   8
ATOM      8  CB  TYR A 136      37.367  36.835  10.240  1.00 28.16     0.060 C 
BRANCH   8   9
ATOM      9  CG  TYR A 136      37.355  38.331  10.439  1.00 31.88    -0.020 A 
ATOM     10  CD2 TYR A 136      37.800  38.905  11.632  1.00 32.67    -0.002 A 
ATOM     11  CE2 TYR A 136      37.783  40.295  11.808  1.00 33.89     0.027 A 
ATOM     12  CZ  TYR A 136      37.315  41.119  10.781  1.00 34.34     0.131 A 
ATOM     13  OH  TYR A 136      37.296  42.498  10.930  1.00 35.14    -0.190 OA
ATOM     14  CE1 TYR A 136      36.868  40.565   9.590  1.00 35.01     0.027 A 
ATOM     15  CD1 TYR A 136      36.884  39.179   9.429  1.00 33.57    -0.002 A 
ENDBRANCH   8   9
ENDBRANCH   7   8
END_RES TYR A 136
BEGIN_RES ASN A 133
REMARK  2 active torsions:
REMARK  status: ('A' for Active; 'I' for Inactive)
REMARK    7  A    between atoms: CA   and  CB  
REMARK    8  A    between atoms: CB   and  CG  
ROOT
ATOM     16  CA  ASN A 133      31.225  30.257  11.749  1.00 18.15     0.196 C 
ENDROOT
BRANCH  16  17
ATOM     17  CB  ASN A 133      30.092  31.240  11.460  1.00 18.27     0.126 C 
BRANCH  17  18
ATOM     18  CG  ASN A 133      28.752  30.582  11.348  1.00 18.94     0.276 C 
ATOM     19  OD1 ASN A 133      28.584  29.595  10.630  1.00 18.09    -0.269 OA
ATOM     20  ND2 ASN A 133      27.772  31.130  12.065  1.00 18.93    -0.107 N 
ENDBRANCH  17  18
ENDBRANCH  16  17
END_RES ASN A 133
