REMARK VINA RESULT:    -4.153      3.795      6.502
REMARK INTER + INTRA:          -8.640
REMARK INTER:                  -5.189
REMARK INTRA:                  -3.451
REMARK UNBOUND:                -3.516
REMARK SMILES Cc1cn(C(C)CC(=O)c2ccccc2)nn1
REMARK SMILES IDX 7 1 5 2 6 3 4 4 1 5 2 6 3 7 17 8 16 9 8 10 9 11 10 12 11 13
REMARK SMILES IDX 15 14 12 15 14 16 13 17
REMARK H PARENT
REMARK Flexibility Score: inf
ROOT
ATOM      1  C   UNL     1      30.150  30.932  18.514  1.00  0.00     0.108 C 
ENDROOT
BRANCH   1   2
ATOM      2  C   UNL     1      28.790  30.883  19.106  1.00  0.00     0.114 C 
ATOM      3  C   UNL     1      28.470  31.926  20.101  1.00  0.00     0.034 C 
BRANCH   2   4
ATOM      4  N   UNL     1      28.580  29.558  19.658  1.00  0.00    -0.249 N 
ATOM      5  C   UNL     1      26.419  26.705  20.272  1.00  0.00     0.070 C 
ATOM      6  C   UNL     1      27.511  27.686  20.178  1.00  0.00     0.080 A 
ATOM      7  C   UNL     1      27.399  28.918  19.563  1.00  0.00     0.134 A 
ATOM      8  N   UNL     1      28.776  27.624  20.631  1.00  0.00    -0.136 NA
ATOM      9  N   UNL     1      29.388  28.758  20.304  1.00  0.00    -0.067 NA
ENDBRANCH   2   4
ENDBRANCH   1   2
BRANCH   1  10
ATOM     10  C   UNL     1      30.200  31.338  17.102  1.00  0.00     0.164 C 
ATOM     11  O   UNL     1      29.643  30.732  16.167  1.00  0.00    -0.294 OA
BRANCH  10  12
ATOM     12  C   UNL     1      30.959  32.540  16.772  1.00  0.00     0.018 A 
ATOM     13  C   UNL     1      31.478  32.761  15.500  1.00  0.00     0.012 A 
ATOM     14  C   UNL     1      31.214  33.542  17.699  1.00  0.00     0.012 A 
ATOM     15  C   UNL     1      32.196  33.894  15.180  1.00  0.00     0.001 A 
ATOM     16  C   UNL     1      31.916  34.673  17.425  1.00  0.00     0.001 A 
ATOM     17  C   UNL     1      32.414  34.856  16.157  1.00  0.00     0.000 A 
ENDBRANCH  10  12
ENDBRANCH   1  10
TORSDOF 4
BEGIN_RES LYS A 135
REMARK  4 active torsions:
REMARK  status: ('A' for Active; 'I' for Inactive)
REMARK    1  A    between atoms: CA   and  CB  
REMARK    2  A    between atoms: CB   and  CG  
REMARK    3  A    between atoms: CG   and  CD  
REMARK    4  A    between atoms: CD   and  CE  
ROOT
ATOM      1  CA  LYS A 135      33.193  34.663   9.290  1.00 25.02     0.186 C 
ENDROOT
BRANCH   1   2
ATOM      2  CB  LYS A 135      32.060  35.360  10.034  1.00 26.63     0.034 C 
BRANCH   2   3
ATOM      3  CG  LYS A 135      30.708  34.739   9.792  1.00 29.45     0.005 C 
BRANCH   3   4
ATOM      4  CD  LYS A 135      30.501  34.465   8.310  1.00 32.00     0.041 C 
BRANCH   4   5
ATOM      5  CE  LYS A 135      29.107  34.880   7.882  1.00 34.25     0.338 C 
ATOM      6  NZ  LYS A 135      29.044  36.342   7.601  1.00 35.99     0.618 N 
ENDBRANCH   4   5
ENDBRANCH   3   4
ENDBRANCH   2   3
ENDBRANCH   1   2
END_RES LYS A 135
BEGIN_RES TYR A 136
REMARK  2 active torsions:
REMARK  status: ('A' for Active; 'I' for Inactive)
REMARK    5  A    between atoms: CA   and  CB  
REMARK    6  A    between atoms: CB   and  CG  
ROOT
ATOM      7  CA  TYR A 136      36.583  36.399   8.994  1.00 26.14     0.191 C 
ENDROOT
BRANCH   7   8
ATOM      8  CB  TYR A 136      37.367  36.835  10.240  1.00 28.16     0.060 C 
BRANCH   8   9
ATOM      9  CG  TYR A 136      37.258  38.316  10.505  1.00 31.88    -0.020 A 
ATOM     10  CD2 TYR A 136      37.983  38.922  11.534  1.00 32.67    -0.002 A 
ATOM     11  CE2 TYR A 136      37.873  40.299  11.773  1.00 33.89     0.027 A 
ATOM     12  CZ  TYR A 136      37.031  41.077  10.975  1.00 34.34     0.131 A 
ATOM     13  OH  TYR A 136      36.912  42.443  11.189  1.00 35.14    -0.190 OA
ATOM     14  CE1 TYR A 136      36.303  40.491   9.949  1.00 35.01     0.027 A 
ATOM     15  CD1 TYR A 136      36.416  39.118   9.725  1.00 33.57    -0.002 A 
ENDBRANCH   8   9
ENDBRANCH   7   8
END_RES TYR A 136
BEGIN_RES ASN A 133
REMARK  2 active torsions:
REMARK  status: ('A' for Active; 'I' for Inactive)
REMARK    7  A    between atoms: CA   and  CB  
REMARK    8  A    between atoms: CB   and  CG  
ROOT
ATOM     16  CA  ASN A 133      31.225  30.257  11.749  1.00 18.15     0.196 C 
ENDROOT
BRANCH  16  17
ATOM     17  CB  ASN A 133      30.092  31.240  11.460  1.00 18.27     0.126 C 
BRANCH  17  18
ATOM     18  CG  ASN A 133      28.754  30.580  11.330  1.00 18.94     0.276 C 
ATOM     19  OD1 ASN A 133      28.585  29.626  10.567  1.00 18.09    -0.269 OA
ATOM     20  ND2 ASN A 133      27.778  31.087  12.082  1.00 18.93    -0.107 N 
ENDBRANCH  17  18
ENDBRANCH  16  17
END_RES ASN A 133
