REMARK VINA RESULT:    -3.782      5.008      8.198
REMARK INTER + INTRA:          -6.870
REMARK INTER:                  -3.843
REMARK INTRA:                  -3.027
REMARK UNBOUND:                -2.867
REMARK SMILES Cc1cn(-c2ccc(Cl)cc2)nn1
REMARK SMILES IDX 5 1 6 2 7 3 8 4 9 5 10 6 11 7 4 8 1 9 2 10 3 11 13 12 12 13
REMARK H PARENT
REMARK Flexibility Score: inf
ROOT
ATOM      1  C   UNL     1      35.181  39.156   5.629  1.00  0.00     0.066 A 
ATOM      2  C   UNL     1      33.844  39.500   5.593  1.00  0.00     0.030 A 
ATOM      3  C   UNL     1      33.167  40.016   6.666  1.00  0.00     0.023 A 
ATOM      4  C   UNL     1      33.840  40.213   7.869  1.00  0.00     0.041 A 
ATOM      5  Cl  UNL     1      32.998  40.871   9.260  1.00  0.00    -0.084 Cl
ATOM      6  C   UNL     1      35.186  39.872   7.928  1.00  0.00     0.023 A 
ATOM      7  C   UNL     1      35.840  39.353   6.827  1.00  0.00     0.030 A 
ENDROOT
BRANCH   1   8
ATOM      8  N   UNL     1      35.863  38.621   4.501  1.00  0.00    -0.220 N 
ATOM      9  C   UNL     1      38.774  37.214   2.751  1.00  0.00     0.070 C 
ATOM     10  C   UNL     1      37.480  37.754   3.226  1.00  0.00     0.080 A 
ATOM     11  C   UNL     1      37.160  38.213   4.485  1.00  0.00     0.140 A 
ATOM     12  N   UNL     1      36.362  37.894   2.497  1.00  0.00    -0.135 NA
ATOM     13  N   UNL     1      35.422  38.408   3.272  1.00  0.00    -0.062 NA
ENDBRANCH   1   8
TORSDOF 1
BEGIN_RES LYS A 135
REMARK  4 active torsions:
REMARK  status: ('A' for Active; 'I' for Inactive)
REMARK    1  A    between atoms: CA   and  CB  
REMARK    2  A    between atoms: CB   and  CG  
REMARK    3  A    between atoms: CG   and  CD  
REMARK    4  A    between atoms: CD   and  CE  
ROOT
ATOM      1  CA  LYS A 135      33.193  34.663   9.290  1.00 25.02     0.186 C 
ENDROOT
BRANCH   1   2
ATOM      2  CB  LYS A 135      32.060  35.360  10.034  1.00 26.63     0.034 C 
BRANCH   2   3
ATOM      3  CG  LYS A 135      30.705  34.754   9.773  1.00 29.45     0.005 C 
BRANCH   3   4
ATOM      4  CD  LYS A 135      30.498  34.524   8.284  1.00 32.00     0.041 C 
BRANCH   4   5
ATOM      5  CE  LYS A 135      29.074  34.862   7.885  1.00 34.25     0.338 C 
ATOM      6  NZ  LYS A 135      28.990  36.232   7.307  1.00 35.99     0.618 N 
ENDBRANCH   4   5
ENDBRANCH   3   4
ENDBRANCH   2   3
ENDBRANCH   1   2
END_RES LYS A 135
BEGIN_RES TYR A 136
REMARK  2 active torsions:
REMARK  status: ('A' for Active; 'I' for Inactive)
REMARK    5  A    between atoms: CA   and  CB  
REMARK    6  A    between atoms: CB   and  CG  
ROOT
ATOM      7  CA  TYR A 136      36.583  36.399   8.994  1.00 26.14     0.191 C 
ENDROOT
BRANCH   7   8
ATOM      8  CB  TYR A 136      37.367  36.835  10.240  1.00 28.16     0.060 C 
BRANCH   8   9
ATOM      9  CG  TYR A 136      37.160  38.292  10.575  1.00 31.88    -0.020 A 
ATOM     10  CD2 TYR A 136      38.079  39.264  10.172  1.00 32.67    -0.002 A 
ATOM     11  CE2 TYR A 136      37.879  40.614  10.490  1.00 33.89     0.027 A 
ATOM     12  CZ  TYR A 136      36.749  40.995  11.219  1.00 34.34     0.131 A 
ATOM     13  OH  TYR A 136      36.527  42.327  11.539  1.00 35.14    -0.190 OA
ATOM     14  CE1 TYR A 136      35.827  40.043  11.628  1.00 35.01     0.027 A 
ATOM     15  CD1 TYR A 136      36.041  38.700  11.311  1.00 33.57    -0.002 A 
ENDBRANCH   8   9
ENDBRANCH   7   8
END_RES TYR A 136
BEGIN_RES ASN A 133
REMARK  2 active torsions:
REMARK  status: ('A' for Active; 'I' for Inactive)
REMARK    7  A    between atoms: CA   and  CB  
REMARK    8  A    between atoms: CB   and  CG  
ROOT
ATOM     16  CA  ASN A 133      31.225  30.257  11.749  1.00 18.15     0.196 C 
ENDROOT
BRANCH  16  17
ATOM     17  CB  ASN A 133      30.092  31.240  11.460  1.00 18.27     0.126 C 
BRANCH  17  18
ATOM     18  CG  ASN A 133      28.750  30.584  11.364  1.00 18.94     0.276 C 
ATOM     19  OD1 ASN A 133      28.565  29.613  10.627  1.00 18.09    -0.269 OA
ATOM     20  ND2 ASN A 133      27.786  31.115  12.116  1.00 18.93    -0.107 N 
ENDBRANCH  17  18
ENDBRANCH  16  17
END_RES ASN A 133
