REMARK VINA RESULT:    -5.244      7.939     15.426
REMARK INTER + INTRA:          -7.192
REMARK INTER:                  -4.029
REMARK INTRA:                  -3.163
REMARK UNBOUND:                -1.642
REMARK SMILES Cc1cn(C2CCCCC2)nn1
REMARK SMILES IDX 5 1 6 2 7 3 8 4 9 5 10 6 4 7 1 8 2 9 3 10 12 11 11 12
REMARK H PARENT
REMARK Flexibility Score: inf
ROOT
ATOM      1  C   UNL     1      22.194  34.647  -0.396  1.00  0.00     0.109 C 
ATOM      2  C   UNL     1      23.080  33.785   0.443  1.00  0.00     0.027 C 
ATOM      3  C   UNL     1      22.471  32.439   0.764  1.00  0.00     0.002 C 
ATOM      4  C   UNL     1      22.267  31.650  -0.507  1.00  0.00     0.000 C 
ATOM      5  C   UNL     1      22.176  32.530  -1.711  1.00  0.00     0.002 C 
ATOM      6  C   UNL     1      21.462  33.840  -1.438  1.00  0.00     0.027 C 
ENDROOT
BRANCH   1   7
ATOM      7  N   UNL     1      22.978  35.713  -0.997  1.00  0.00    -0.249 N 
ATOM      8  C   UNL     1      24.197  39.089  -1.614  1.00  0.00     0.070 C 
ATOM      9  C   UNL     1      23.905  37.624  -1.586  1.00  0.00     0.080 A 
ATOM     10  C   UNL     1      22.985  37.016  -0.766  1.00  0.00     0.134 A 
ATOM     11  N   UNL     1      24.447  36.636  -2.316  1.00  0.00    -0.136 NA
ATOM     12  N   UNL     1      23.887  35.498  -1.956  1.00  0.00    -0.067 NA
ENDBRANCH   1   7
TORSDOF 1
BEGIN_RES LYS A 135
REMARK  4 active torsions:
REMARK  status: ('A' for Active; 'I' for Inactive)
REMARK    1  A    between atoms: CA   and  CB  
REMARK    2  A    between atoms: CB   and  CG  
REMARK    3  A    between atoms: CG   and  CD  
REMARK    4  A    between atoms: CD   and  CE  
ROOT
ATOM      1  CA  LYS A 135      33.193  34.663   9.290  1.00 25.02     0.186 C 
ENDROOT
BRANCH   1   2
ATOM      2  CB  LYS A 135      32.060  35.360  10.034  1.00 26.63     0.034 C 
BRANCH   2   3
ATOM      3  CG  LYS A 135      30.843  35.610   9.181  1.00 29.45     0.005 C 
BRANCH   3   4
ATOM      4  CD  LYS A 135      30.264  34.298   8.674  1.00 32.00     0.041 C 
BRANCH   4   5
ATOM      5  CE  LYS A 135      28.762  34.412   8.497  1.00 34.25     0.338 C 
ATOM      6  NZ  LYS A 135      28.038  33.724   9.601  1.00 35.99     0.618 N 
ENDBRANCH   4   5
ENDBRANCH   3   4
ENDBRANCH   2   3
ENDBRANCH   1   2
END_RES LYS A 135
BEGIN_RES TYR A 136
REMARK  2 active torsions:
REMARK  status: ('A' for Active; 'I' for Inactive)
REMARK    5  A    between atoms: CA   and  CB  
REMARK    6  A    between atoms: CB   and  CG  
ROOT
ATOM      7  CA  TYR A 136      36.583  36.399   8.994  1.00 26.14     0.191 C 
ENDROOT
BRANCH   7   8
ATOM      8  CB  TYR A 136      37.367  36.835  10.240  1.00 28.16     0.060 C 
BRANCH   8   9
ATOM      9  CG  TYR A 136      37.222  38.309  10.530  1.00 31.88    -0.020 A 
ATOM     10  CD2 TYR A 136      38.223  39.217  10.178  1.00 32.67    -0.002 A 
ATOM     11  CE2 TYR A 136      38.080  40.584  10.454  1.00 33.89     0.027 A 
ATOM     12  CZ  TYR A 136      36.924  41.046  11.088  1.00 34.34     0.131 A 
ATOM     13  OH  TYR A 136      36.757  42.395  11.365  1.00 35.14    -0.190 OA
ATOM     14  CE1 TYR A 136      35.920  40.157  11.446  1.00 35.01     0.027 A 
ATOM     15  CD1 TYR A 136      36.077  38.798  11.172  1.00 33.57    -0.002 A 
ENDBRANCH   8   9
ENDBRANCH   7   8
END_RES TYR A 136
BEGIN_RES ASN A 133
REMARK  2 active torsions:
REMARK  status: ('A' for Active; 'I' for Inactive)
REMARK    7  A    between atoms: CA   and  CB  
REMARK    8  A    between atoms: CB   and  CG  
ROOT
ATOM     16  CA  ASN A 133      31.225  30.257  11.749  1.00 18.15     0.196 C 
ENDROOT
BRANCH  16  17
ATOM     17  CB  ASN A 133      30.092  31.240  11.460  1.00 18.27     0.126 C 
BRANCH  17  18
ATOM     18  CG  ASN A 133      28.751  30.582  11.353  1.00 18.94     0.276 C 
ATOM     19  OD1 ASN A 133      28.574  29.609  10.619  1.00 18.09    -0.269 OA
ATOM     20  ND2 ASN A 133      27.780  31.116  12.094  1.00 18.93    -0.107 N 
ENDBRANCH  17  18
ENDBRANCH  16  17
END_RES ASN A 133
