REMARK VINA RESULT:    -4.451      6.281     12.549
REMARK INTER + INTRA:          -7.810
REMARK INTER:                  -5.938
REMARK INTRA:                  -1.872
REMARK UNBOUND:                -2.839
REMARK SMILES Cc1cn(-c2ncn3c2c(=O)n(C(C)C)c2ccccc23)nn1
REMARK SMILES IDX 5 1 6 2 7 3 8 4 21 5 20 6 19 7 18 8 17 9 16 10 12 11 10 12
REMARK SMILES IDX 11 13 9 14 4 15 1 16 2 17 3 18 23 19 22 20 13 21 14 22 15 23
REMARK H PARENT
REMARK Flexibility Score: inf
ROOT
ATOM      1  C   UNL     1      26.806  40.304   5.440  1.00  0.00     0.186 A 
ATOM      2  N   UNL     1      27.884  39.836   4.795  1.00  0.00    -0.216 NA
ATOM      3  C   UNL     1      28.177  38.587   5.193  1.00  0.00     0.207 A 
ATOM      4  N   UNL     1      27.252  38.248   6.127  1.00  0.00    -0.291 N 
ATOM      5  C   UNL     1      27.059  37.125   6.860  1.00  0.00     0.071 A 
ATOM      6  C   UNL     1      27.958  36.105   6.638  1.00  0.00     0.029 A 
ATOM      7  C   UNL     1      27.781  34.951   7.367  1.00  0.00     0.002 A 
ATOM      8  C   UNL     1      26.761  34.813   8.275  1.00  0.00     0.002 A 
ATOM      9  C   UNL     1      25.878  35.837   8.481  1.00  0.00     0.028 A 
ATOM     10  C   UNL     1      26.032  37.002   7.767  1.00  0.00     0.068 A 
ATOM     11  N   UNL     1      25.188  38.075   7.912  1.00  0.00    -0.302 N 
ATOM     12  C   UNL     1      25.366  39.195   7.191  1.00  0.00     0.279 A 
ATOM     13  O   UNL     1      24.632  40.215   7.270  1.00  0.00    -0.267 OA
ATOM     14  C   UNL     1      26.407  39.286   6.290  1.00  0.00     0.158 A 
ENDROOT
BRANCH   1  15
ATOM     15  N   UNL     1      26.184  41.596   5.290  1.00  0.00    -0.200 N 
ATOM     16  C   UNL     1      23.886  44.006   3.838  1.00  0.00     0.070 C 
ATOM     17  C   UNL     1      24.913  43.245   4.607  1.00  0.00     0.080 A 
ATOM     18  C   UNL     1      25.215  41.923   4.416  1.00  0.00     0.142 A 
ATOM     19  N   UNL     1      25.696  43.698   5.585  1.00  0.00    -0.135 NA
ATOM     20  N   UNL     1      26.456  42.687   5.984  1.00  0.00    -0.061 NA
ENDBRANCH   1  15
BRANCH  11  21
ATOM     21  C   UNL     1      24.133  37.947   8.855  1.00  0.00     0.085 C 
ATOM     22  C   UNL     1      24.258  38.969   9.960  1.00  0.00     0.031 C 
ATOM     23  C   UNL     1      22.753  38.107   8.252  1.00  0.00     0.031 C 
ENDBRANCH  11  21
TORSDOF 2
BEGIN_RES LYS A 135
REMARK  4 active torsions:
REMARK  status: ('A' for Active; 'I' for Inactive)
REMARK    1  A    between atoms: CA   and  CB  
REMARK    2  A    between atoms: CB   and  CG  
REMARK    3  A    between atoms: CG   and  CD  
REMARK    4  A    between atoms: CD   and  CE  
ROOT
ATOM      1  CA  LYS A 135      33.193  34.663   9.290  1.00 25.02     0.186 C 
ENDROOT
BRANCH   1   2
ATOM      2  CB  LYS A 135      32.060  35.360  10.034  1.00 26.63     0.034 C 
BRANCH   2   3
ATOM      3  CG  LYS A 135      30.696  34.810   9.706  1.00 29.45     0.005 C 
BRANCH   3   4
ATOM      4  CD  LYS A 135      29.614  35.587  10.440  1.00 32.00     0.041 C 
BRANCH   4   5
ATOM      5  CE  LYS A 135      29.559  37.020   9.945  1.00 34.25     0.338 C 
ATOM      6  NZ  LYS A 135      28.320  37.701  10.412  1.00 35.99     0.618 N 
ENDBRANCH   4   5
ENDBRANCH   3   4
ENDBRANCH   2   3
ENDBRANCH   1   2
END_RES LYS A 135
BEGIN_RES TYR A 136
REMARK  2 active torsions:
REMARK  status: ('A' for Active; 'I' for Inactive)
REMARK    5  A    between atoms: CA   and  CB  
REMARK    6  A    between atoms: CB   and  CG  
ROOT
ATOM      7  CA  TYR A 136      36.583  36.399   8.994  1.00 26.14     0.191 C 
ENDROOT
BRANCH   7   8
ATOM      8  CB  TYR A 136      37.367  36.835  10.240  1.00 28.16     0.060 C 
BRANCH   8   9
ATOM      9  CG  TYR A 136      37.198  38.303  10.548  1.00 31.88    -0.020 A 
ATOM     10  CD2 TYR A 136      38.255  39.201  10.388  1.00 32.67    -0.002 A 
ATOM     11  CE2 TYR A 136      38.088  40.562  10.678  1.00 33.89     0.027 A 
ATOM     12  CZ  TYR A 136      36.852  41.028  11.133  1.00 34.34     0.131 A 
ATOM     13  OH  TYR A 136      36.662  42.373  11.420  1.00 35.14    -0.190 OA
ATOM     14  CE1 TYR A 136      35.792  40.149  11.299  1.00 35.01     0.027 A 
ATOM     15  CD1 TYR A 136      35.972  38.795  11.012  1.00 33.57    -0.002 A 
ENDBRANCH   8   9
ENDBRANCH   7   8
END_RES TYR A 136
BEGIN_RES ASN A 133
REMARK  2 active torsions:
REMARK  status: ('A' for Active; 'I' for Inactive)
REMARK    7  A    between atoms: CA   and  CB  
REMARK    8  A    between atoms: CB   and  CG  
ROOT
ATOM     16  CA  ASN A 133      31.225  30.257  11.749  1.00 18.15     0.196 C 
ENDROOT
BRANCH  16  17
ATOM     17  CB  ASN A 133      30.092  31.240  11.460  1.00 18.27     0.126 C 
BRANCH  17  18
ATOM     18  CG  ASN A 133      28.756  30.578  11.320  1.00 18.94     0.276 C 
ATOM     19  OD1 ASN A 133      28.595  29.619  10.563  1.00 18.09    -0.269 OA
ATOM     20  ND2 ASN A 133      27.771  31.092  12.056  1.00 18.93    -0.107 N 
ENDBRANCH  17  18
ENDBRANCH  16  17
END_RES ASN A 133
