REMARK VINA RESULT:    -4.105      6.508      9.390
REMARK INTER + INTRA:          -7.895
REMARK INTER:                  -4.649
REMARK INTRA:                  -3.246
REMARK UNBOUND:                -3.310
REMARK SMILES Cc1cn(-c2cc(Cl)ccc2C(=O)N(C)C)nn1
REMARK SMILES IDX 5 1 6 2 7 3 8 4 9 5 10 6 11 7 4 8 1 9 2 10 3 11 18 12 17 13
REMARK SMILES IDX 12 14 13 15 14 16 15 17 16 18
REMARK H PARENT
REMARK Flexibility Score: inf
ROOT
ATOM      1  C   UNL     1      36.956  38.411   4.183  1.00  0.00     0.081 A 
ATOM      2  C   UNL     1      36.220  38.720   5.335  1.00  0.00     0.049 A 
ATOM      3  C   UNL     1      34.935  39.208   5.235  1.00  0.00     0.043 A 
ATOM      4  Cl  UNL     1      34.024  39.593   6.692  1.00  0.00    -0.084 Cl
ATOM      5  C   UNL     1      34.346  39.404   4.004  1.00  0.00     0.021 A 
ATOM      6  C   UNL     1      35.073  39.098   2.877  1.00  0.00     0.017 A 
ATOM      7  C   UNL     1      36.347  38.614   2.975  1.00  0.00     0.065 A 
ENDROOT
BRANCH   1   8
ATOM      8  N   UNL     1      38.281  37.908   4.299  1.00  0.00    -0.220 N 
ATOM      9  C   UNL     1      41.900  38.095   4.860  1.00  0.00     0.070 C 
ATOM     10  C   UNL     1      40.474  37.736   4.595  1.00  0.00     0.080 A 
ATOM     11  C   UNL     1      39.382  38.611   4.571  1.00  0.00     0.140 A 
ATOM     12  N   UNL     1      39.957  36.528   4.331  1.00  0.00    -0.135 NA
ATOM     13  N   UNL     1      38.658  36.668   4.161  1.00  0.00    -0.062 NA
ENDBRANCH   1   8
BRANCH   7  14
ATOM     14  C   UNL     1      37.094  38.299   1.754  1.00  0.00     0.255 C 
ATOM     15  O   UNL     1      37.022  37.167   1.219  1.00  0.00    -0.269 OA
ATOM     16  N   UNL     1      37.911  39.319   1.191  1.00  0.00    -0.345 N 
ATOM     17  C   UNL     1      38.669  39.023  -0.033  1.00  0.00     0.146 C 
ATOM     18  C   UNL     1      38.019  40.622   1.773  1.00  0.00     0.146 C 
ENDBRANCH   7  14
TORSDOF 2
BEGIN_RES LYS A 135
REMARK  4 active torsions:
REMARK  status: ('A' for Active; 'I' for Inactive)
REMARK    1  A    between atoms: CA   and  CB  
REMARK    2  A    between atoms: CB   and  CG  
REMARK    3  A    between atoms: CG   and  CD  
REMARK    4  A    between atoms: CD   and  CE  
ROOT
ATOM      1  CA  LYS A 135      33.193  34.663   9.290  1.00 25.02     0.186 C 
ENDROOT
BRANCH   1   2
ATOM      2  CB  LYS A 135      32.060  35.360  10.034  1.00 26.63     0.034 C 
BRANCH   2   3
ATOM      3  CG  LYS A 135      30.730  34.667   9.892  1.00 29.45     0.005 C 
BRANCH   3   4
ATOM      4  CD  LYS A 135      30.343  34.543   8.426  1.00 32.00     0.041 C 
BRANCH   4   5
ATOM      5  CE  LYS A 135      28.834  34.537   8.271  1.00 34.25     0.338 C 
ATOM      6  NZ  LYS A 135      28.179  33.869   9.430  1.00 35.99     0.618 N 
ENDBRANCH   4   5
ENDBRANCH   3   4
ENDBRANCH   2   3
ENDBRANCH   1   2
END_RES LYS A 135
BEGIN_RES TYR A 136
REMARK  2 active torsions:
REMARK  status: ('A' for Active; 'I' for Inactive)
REMARK    5  A    between atoms: CA   and  CB  
REMARK    6  A    between atoms: CB   and  CG  
ROOT
ATOM      7  CA  TYR A 136      36.583  36.399   8.994  1.00 26.14     0.191 C 
ENDROOT
BRANCH   7   8
ATOM      8  CB  TYR A 136      37.367  36.835  10.240  1.00 28.16     0.060 C 
BRANCH   8   9
ATOM      9  CG  TYR A 136      37.414  38.335  10.401  1.00 31.88    -0.020 A 
ATOM     10  CD2 TYR A 136      38.295  38.938  11.301  1.00 32.67    -0.002 A 
ATOM     11  CE2 TYR A 136      38.330  40.332  11.444  1.00 33.89     0.027 A 
ATOM     12  CZ  TYR A 136      37.475  41.129  10.679  1.00 34.34     0.131 A 
ATOM     13  OH  TYR A 136      37.497  42.512  10.799  1.00 35.14    -0.190 OA
ATOM     14  CE1 TYR A 136      36.592  40.546   9.781  1.00 35.01     0.027 A 
ATOM     15  CD1 TYR A 136      36.562  39.157   9.652  1.00 33.57    -0.002 A 
ENDBRANCH   8   9
ENDBRANCH   7   8
END_RES TYR A 136
BEGIN_RES ASN A 133
REMARK  2 active torsions:
REMARK  status: ('A' for Active; 'I' for Inactive)
REMARK    7  A    between atoms: CA   and  CB  
REMARK    8  A    between atoms: CB   and  CG  
ROOT
ATOM     16  CA  ASN A 133      31.225  30.257  11.749  1.00 18.15     0.196 C 
ENDROOT
BRANCH  16  17
ATOM     17  CB  ASN A 133      30.092  31.240  11.460  1.00 18.27     0.126 C 
BRANCH  17  18
ATOM     18  CG  ASN A 133      28.752  30.581  11.344  1.00 18.94     0.276 C 
ATOM     19  OD1 ASN A 133      28.587  29.593  10.626  1.00 18.09    -0.269 OA
ATOM     20  ND2 ASN A 133      27.770  31.130  12.058  1.00 18.93    -0.107 N 
ENDBRANCH  17  18
ENDBRANCH  16  17
END_RES ASN A 133
