REMARK VINA RESULT:    -4.655     10.507     16.872
REMARK INTER + INTRA:          -7.979
REMARK INTER:                  -4.966
REMARK INTRA:                  -3.013
REMARK UNBOUND:                -3.051
REMARK SMILES Cc1cn(-c2c3ccccc3nc3ccccc23)nn1
REMARK SMILES IDX 5 1 6 2 7 3 8 4 9 5 10 6 11 7 12 8 13 9 14 10 15 11 16 12
REMARK SMILES IDX 17 13 18 14 4 15 1 16 2 17 3 18 20 19 19 20
REMARK H PARENT
REMARK Flexibility Score: inf
ROOT
ATOM      1  C   UNL     1      22.554  33.761  -3.044  1.00  0.00     0.085 A 
ATOM      2  C   UNL     1      22.475  32.711  -2.146  1.00  0.00     0.027 A 
ATOM      3  C   UNL     1      22.432  32.950  -0.789  1.00  0.00     0.012 A 
ATOM      4  C   UNL     1      22.354  31.885   0.083  1.00  0.00     0.001 A 
ATOM      5  C   UNL     1      22.321  30.614  -0.447  1.00  0.00     0.002 A 
ATOM      6  C   UNL     1      22.363  30.382  -1.795  1.00  0.00     0.029 A 
ATOM      7  C   UNL     1      22.443  31.446  -2.694  1.00  0.00     0.073 A 
ATOM      8  N   UNL     1      22.484  31.196  -4.012  1.00  0.00    -0.248 NA
ATOM      9  C   UNL     1      22.562  32.229  -4.904  1.00  0.00     0.073 A 
ATOM     10  C   UNL     1      22.604  31.981  -6.262  1.00  0.00     0.029 A 
ATOM     11  C   UNL     1      22.683  33.064  -7.110  1.00  0.00     0.002 A 
ATOM     12  C   UNL     1      22.718  34.360  -6.631  1.00  0.00     0.001 A 
ATOM     13  C   UNL     1      22.675  34.583  -5.292  1.00  0.00     0.012 A 
ATOM     14  C   UNL     1      22.597  33.517  -4.425  1.00  0.00     0.027 A 
ENDROOT
BRANCH   1  15
ATOM     15  N   UNL     1      22.592  35.103  -2.584  1.00  0.00    -0.219 N 
ATOM     16  C   UNL     1      24.181  38.214  -1.461  1.00  0.00     0.070 C 
ATOM     17  C   UNL     1      23.288  37.076  -1.882  1.00  0.00     0.080 A 
ATOM     18  C   UNL     1      23.682  35.824  -2.297  1.00  0.00     0.140 A 
ATOM     19  N   UNL     1      21.949  37.090  -1.924  1.00  0.00    -0.135 NA
ATOM     20  N   UNL     1      21.579  35.901  -2.346  1.00  0.00    -0.062 NA
ENDBRANCH   1  15
TORSDOF 1
BEGIN_RES LYS A 135
REMARK  4 active torsions:
REMARK  status: ('A' for Active; 'I' for Inactive)
REMARK    1  A    between atoms: CA   and  CB  
REMARK    2  A    between atoms: CB   and  CG  
REMARK    3  A    between atoms: CG   and  CD  
REMARK    4  A    between atoms: CD   and  CE  
ROOT
ATOM      1  CA  LYS A 135      33.193  34.663   9.290  1.00 25.02     0.186 C 
ENDROOT
BRANCH   1   2
ATOM      2  CB  LYS A 135      32.060  35.360  10.034  1.00 26.63     0.034 C 
BRANCH   2   3
ATOM      3  CG  LYS A 135      30.831  35.580   9.191  1.00 29.45     0.005 C 
BRANCH   3   4
ATOM      4  CD  LYS A 135      30.123  34.261   8.920  1.00 32.00     0.041 C 
BRANCH   4   5
ATOM      5  CE  LYS A 135      28.766  34.505   8.287  1.00 34.25     0.338 C 
ATOM      6  NZ  LYS A 135      28.884  35.374   7.084  1.00 35.99     0.618 N 
ENDBRANCH   4   5
ENDBRANCH   3   4
ENDBRANCH   2   3
ENDBRANCH   1   2
END_RES LYS A 135
BEGIN_RES TYR A 136
REMARK  2 active torsions:
REMARK  status: ('A' for Active; 'I' for Inactive)
REMARK    5  A    between atoms: CA   and  CB  
REMARK    6  A    between atoms: CB   and  CG  
ROOT
ATOM      7  CA  TYR A 136      36.583  36.399   8.994  1.00 26.14     0.191 C 
ENDROOT
BRANCH   7   8
ATOM      8  CB  TYR A 136      37.367  36.835  10.240  1.00 28.16     0.060 C 
BRANCH   8   9
ATOM      9  CG  TYR A 136      37.201  38.303  10.546  1.00 31.88    -0.020 A 
ATOM     10  CD2 TYR A 136      37.707  38.859  11.723  1.00 32.67    -0.002 A 
ATOM     11  CE2 TYR A 136      37.546  40.223  11.998  1.00 33.89     0.027 A 
ATOM     12  CZ  TYR A 136      36.872  41.040  11.087  1.00 34.34     0.131 A 
ATOM     13  OH  TYR A 136      36.707  42.396  11.336  1.00 35.14    -0.190 OA
ATOM     14  CE1 TYR A 136      36.361  40.505   9.913  1.00 35.01     0.027 A 
ATOM     15  CD1 TYR A 136      36.523  39.143   9.653  1.00 33.57    -0.002 A 
ENDBRANCH   8   9
ENDBRANCH   7   8
END_RES TYR A 136
BEGIN_RES ASN A 133
REMARK  2 active torsions:
REMARK  status: ('A' for Active; 'I' for Inactive)
REMARK    7  A    between atoms: CA   and  CB  
REMARK    8  A    between atoms: CB   and  CG  
ROOT
ATOM     16  CA  ASN A 133      31.225  30.257  11.749  1.00 18.15     0.196 C 
ENDROOT
BRANCH  16  17
ATOM     17  CB  ASN A 133      30.092  31.240  11.460  1.00 18.27     0.126 C 
BRANCH  17  18
ATOM     18  CG  ASN A 133      28.752  30.582  11.350  1.00 18.94     0.276 C 
ATOM     19  OD1 ASN A 133      28.578  29.606  10.617  1.00 18.09    -0.269 OA
ATOM     20  ND2 ASN A 133      27.777  31.117  12.085  1.00 18.93    -0.107 N 
ENDBRANCH  17  18
ENDBRANCH  16  17
END_RES ASN A 133
