REMARK VINA RESULT:    -6.219      0.000      0.000
REMARK INTER + INTRA:         -10.006
REMARK INTER:                  -6.633
REMARK INTRA:                  -3.374
REMARK UNBOUND:                -2.333
REMARK SMILES Cc1cn(-c2ccc(S(=O)(=O)Nc3nccs3)cc2)nn1
REMARK SMILES IDX 9 1 10 2 11 3 8 4 5 5 6 6 19 7 7 8 18 9 4 10 1 11 2 12 3 13
REMARK SMILES IDX 21 14 20 15 12 16 13 18 14 19 17 20 15 21 16 22
REMARK H PARENT 12 17
REMARK Flexibility Score: inf
ROOT
ATOM      1  S   UNL     1      33.418  35.105  13.975  1.00  0.00     0.263 S 
ATOM      2  O   UNL     1      33.018  36.289  13.157  1.00  0.00    -0.201 OA
ATOM      3  O   UNL     1      34.007  35.598  15.282  1.00  0.00    -0.201 OA
ENDROOT
BRANCH   1   4
ATOM      4  C   UNL     1      31.961  34.211  14.349  1.00  0.00     0.088 A 
ATOM      5  C   UNL     1      29.746  32.754  15.019  1.00  0.00     0.066 A 
ATOM      6  C   UNL     1      30.914  32.577  15.710  1.00  0.00     0.030 A 
ATOM      7  C   UNL     1      29.687  33.657  13.997  1.00  0.00     0.030 A 
ATOM      8  C   UNL     1      32.034  33.294  15.393  1.00  0.00     0.024 A 
ATOM      9  C   UNL     1      30.796  34.384  13.663  1.00  0.00     0.024 A 
BRANCH   5  10
ATOM     10  N   UNL     1      28.616  31.953  15.427  1.00  0.00    -0.220 N 
ATOM     11  C   UNL     1      26.940  28.982  16.780  1.00  0.00     0.070 C 
ATOM     12  C   UNL     1      27.383  30.277  16.207  1.00  0.00     0.080 A 
ATOM     13  C   UNL     1      28.665  30.713  15.944  1.00  0.00     0.140 A 
ATOM     14  N   UNL     1      26.593  31.297  15.829  1.00  0.00    -0.135 NA
ATOM     15  N   UNL     1      27.345  32.280  15.368  1.00  0.00    -0.062 NA
ENDBRANCH   5  10
ENDBRANCH   1   4
BRANCH   1  16
ATOM     16  N   UNL     1      34.556  34.135  13.161  1.00  0.00    -0.255 N 
ATOM     17  H   UNL     1      34.206  33.255  12.692  1.00  0.00     0.182 HD
BRANCH  16  18
ATOM     18  C   UNL     1      35.941  34.509  13.121  1.00  0.00     0.196 A 
ATOM     19  N   UNL     1      36.641  35.331  13.457  1.00  0.00    -0.228 NA
ATOM     20  S   UNL     1      37.135  33.330  12.239  1.00  0.00    -0.105 S 
ATOM     21  C   UNL     1      37.937  35.467  13.298  1.00  0.00     0.125 A 
ATOM     22  C   UNL     1      38.557  34.468  12.622  1.00  0.00     0.089 A 
ENDBRANCH  16  18
ENDBRANCH   1  16
TORSDOF 4
BEGIN_RES LYS A 135
REMARK  4 active torsions:
REMARK  status: ('A' for Active; 'I' for Inactive)
REMARK    1  A    between atoms: CA   and  CB  
REMARK    2  A    between atoms: CB   and  CG  
REMARK    3  A    between atoms: CG   and  CD  
REMARK    4  A    between atoms: CD   and  CE  
ROOT
ATOM      1  CA  LYS A 135      33.193  34.663   9.290  1.00 25.02     0.186 C 
ENDROOT
BRANCH   1   2
ATOM      2  CB  LYS A 135      32.060  35.360  10.034  1.00 26.63     0.034 C 
BRANCH   2   3
ATOM      3  CG  LYS A 135      30.732  34.661   9.900  1.00 29.45     0.005 C 
BRANCH   3   4
ATOM      4  CD  LYS A 135      30.325  34.557   8.438  1.00 32.00     0.041 C 
BRANCH   4   5
ATOM      5  CE  LYS A 135      28.814  34.535   8.306  1.00 34.25     0.338 C 
ATOM      6  NZ  LYS A 135      28.186  33.821   9.451  1.00 35.99     0.618 N 
ENDBRANCH   4   5
ENDBRANCH   3   4
ENDBRANCH   2   3
ENDBRANCH   1   2
END_RES LYS A 135
BEGIN_RES TYR A 136
REMARK  2 active torsions:
REMARK  status: ('A' for Active; 'I' for Inactive)
REMARK    5  A    between atoms: CA   and  CB  
REMARK    6  A    between atoms: CB   and  CG  
ROOT
ATOM      7  CA  TYR A 136      36.583  36.399   8.994  1.00 26.14     0.191 C 
ENDROOT
BRANCH   7   8
ATOM      8  CB  TYR A 136      37.367  36.835  10.240  1.00 28.16     0.060 C 
BRANCH   8   9
ATOM      9  CG  TYR A 136      37.209  38.305  10.540  1.00 31.88    -0.020 A 
ATOM     10  CD2 TYR A 136      36.727  39.192   9.575  1.00 32.67    -0.002 A 
ATOM     11  CE2 TYR A 136      36.586  40.557   9.863  1.00 33.89     0.027 A 
ATOM     12  CZ  TYR A 136      36.931  41.038  11.128  1.00 34.34     0.131 A 
ATOM     13  OH  TYR A 136      36.792  42.384  11.438  1.00 35.14    -0.190 OA
ATOM     14  CE1 TYR A 136      37.412  40.171  12.098  1.00 35.01     0.027 A 
ATOM     15  CD1 TYR A 136      37.555  38.816  11.798  1.00 33.57    -0.002 A 
ENDBRANCH   8   9
ENDBRANCH   7   8
END_RES TYR A 136
BEGIN_RES ASN A 133
REMARK  2 active torsions:
REMARK  status: ('A' for Active; 'I' for Inactive)
REMARK    7  A    between atoms: CA   and  CB  
REMARK    8  A    between atoms: CB   and  CG  
ROOT
ATOM     16  CA  ASN A 133      31.225  30.257  11.749  1.00 18.15     0.196 C 
ENDROOT
BRANCH  16  17
ATOM     17  CB  ASN A 133      30.092  31.240  11.460  1.00 18.27     0.126 C 
BRANCH  17  18
ATOM     18  CG  ASN A 133      28.750  30.584  11.361  1.00 18.94     0.276 C 
ATOM     19  OD1 ASN A 133      28.567  29.613  10.624  1.00 18.09    -0.269 OA
ATOM     20  ND2 ASN A 133      27.785  31.114  12.112  1.00 18.93    -0.107 N 
ENDBRANCH  17  18
ENDBRANCH  16  17
END_RES ASN A 133
