REMARK VINA RESULT:    -4.485      3.587      7.114
REMARK INTER + INTRA:          -7.917
REMARK INTER:                  -6.248
REMARK INTRA:                  -1.669
REMARK UNBOUND:                -2.907
REMARK SMILES Cc1cn(Cc2ccccc2Br)nn1
REMARK SMILES IDX 5 1 4 2 1 3 2 4 3 5 14 6 13 7 6 8 7 9 11 10 8 11 10 12 12 13
REMARK SMILES IDX 9 14
REMARK H PARENT
REMARK Flexibility Score: inf
ROOT
ATOM      1  C   UNL     1      27.933  35.762   6.569  1.00  0.00     0.182 C 
ENDROOT
BRANCH   1   2
ATOM      2  N   UNL     1      28.324  37.146   6.412  1.00  0.00    -0.248 N 
ATOM      3  C   UNL     1      28.492  40.652   7.509  1.00  0.00     0.070 C 
ATOM      4  C   UNL     1      28.565  39.307   6.839  1.00  0.00     0.080 A 
ATOM      5  C   UNL     1      28.047  38.127   7.304  1.00  0.00     0.134 A 
ATOM      6  N   UNL     1      29.160  39.010   5.647  1.00  0.00    -0.136 NA
ATOM      7  N   UNL     1      28.981  37.717   5.455  1.00  0.00    -0.067 NA
ENDBRANCH   1   2
BRANCH   1   8
ATOM      8  C   UNL     1      28.618  35.085   7.688  1.00  0.00    -0.012 A 
ATOM      9  C   UNL     1      29.973  34.880   7.601  1.00  0.00     0.007 A 
ATOM     10  C   UNL     1      27.889  34.662   8.804  1.00  0.00     0.023 A 
ATOM     11  C   UNL     1      30.632  34.247   8.630  1.00  0.00     0.000 A 
ATOM     12  C   UNL     1      28.556  34.029   9.828  1.00  0.00     0.016 A 
ATOM     13  Br  UNL     1      26.016  34.997   8.817  1.00  0.00    -0.050 Br
ATOM     14  C   UNL     1      29.899  33.836   9.725  1.00  0.00     0.001 A 
ENDBRANCH   1   8
TORSDOF 2
BEGIN_RES LYS A 135
REMARK  4 active torsions:
REMARK  status: ('A' for Active; 'I' for Inactive)
REMARK    1  A    between atoms: CA   and  CB  
REMARK    2  A    between atoms: CB   and  CG  
REMARK    3  A    between atoms: CG   and  CD  
REMARK    4  A    between atoms: CD   and  CE  
ROOT
ATOM      1  CA  LYS A 135      33.193  34.663   9.290  1.00 25.02     0.186 C 
ENDROOT
BRANCH   1   2
ATOM      2  CB  LYS A 135      32.060  35.360  10.034  1.00 26.63     0.034 C 
BRANCH   2   3
ATOM      3  CG  LYS A 135      32.522  36.150  11.232  1.00 29.45     0.005 C 
BRANCH   3   4
ATOM      4  CD  LYS A 135      31.662  37.390  11.420  1.00 32.00     0.041 C 
BRANCH   4   5
ATOM      5  CE  LYS A 135      30.758  37.599  10.220  1.00 34.25     0.338 C 
ATOM      6  NZ  LYS A 135      29.323  37.553  10.615  1.00 35.99     0.618 N 
ENDBRANCH   4   5
ENDBRANCH   3   4
ENDBRANCH   2   3
ENDBRANCH   1   2
END_RES LYS A 135
BEGIN_RES TYR A 136
REMARK  2 active torsions:
REMARK  status: ('A' for Active; 'I' for Inactive)
REMARK    5  A    between atoms: CA   and  CB  
REMARK    6  A    between atoms: CB   and  CG  
ROOT
ATOM      7  CA  TYR A 136      36.583  36.399   8.994  1.00 26.14     0.191 C 
ENDROOT
BRANCH   7   8
ATOM      8  CB  TYR A 136      37.367  36.835  10.240  1.00 28.16     0.060 C 
BRANCH   8   9
ATOM      9  CG  TYR A 136      36.493  37.507  11.270  1.00 31.88    -0.020 A 
ATOM     10  CD2 TYR A 136      35.832  38.704  10.987  1.00 32.67    -0.002 A 
ATOM     11  CE2 TYR A 136      35.023  39.321  11.952  1.00 33.89     0.027 A 
ATOM     12  CZ  TYR A 136      34.875  38.735  13.211  1.00 34.34     0.131 A 
ATOM     13  OH  TYR A 136      34.074  39.324  14.179  1.00 35.14    -0.190 OA
ATOM     14  CE1 TYR A 136      35.525  37.546  13.509  1.00 35.01     0.027 A 
ATOM     15  CD1 TYR A 136      36.333  36.944  12.543  1.00 33.57    -0.002 A 
ENDBRANCH   8   9
ENDBRANCH   7   8
END_RES TYR A 136
BEGIN_RES ASN A 133
REMARK  2 active torsions:
REMARK  status: ('A' for Active; 'I' for Inactive)
REMARK    7  A    between atoms: CA   and  CB  
REMARK    8  A    between atoms: CB   and  CG  
ROOT
ATOM     16  CA  ASN A 133      31.225  30.257  11.749  1.00 18.15     0.196 C 
ENDROOT
BRANCH  16  17
ATOM     17  CB  ASN A 133      30.092  31.240  11.460  1.00 18.27     0.126 C 
BRANCH  17  18
ATOM     18  CG  ASN A 133      28.751  30.583  11.355  1.00 18.94     0.276 C 
ATOM     19  OD1 ASN A 133      28.579  29.595  10.638  1.00 18.09    -0.269 OA
ATOM     20  ND2 ASN A 133      27.774  31.132  12.076  1.00 18.93    -0.107 N 
ENDBRANCH  17  18
ENDBRANCH  16  17
END_RES ASN A 133
