REMARK VINA RESULT:    -3.391      4.302      7.758
REMARK INTER + INTRA:          -6.849
REMARK INTER:                  -3.646
REMARK INTRA:                  -3.203
REMARK UNBOUND:                -3.260
REMARK SMILES Cc1cn(-c2ccccc2Br)nn1
REMARK SMILES IDX 5 1 6 2 7 3 8 4 9 5 10 6 11 7 4 8 1 9 2 10 3 11 13 12 12 13
REMARK H PARENT
REMARK Flexibility Score: inf
ROOT
ATOM      1  C   UNL     1      26.769  37.483   7.390  1.00  0.00     0.081 A 
ATOM      2  C   UNL     1      27.116  36.838   6.222  1.00  0.00     0.029 A 
ATOM      3  C   UNL     1      28.365  37.040   5.673  1.00  0.00     0.002 A 
ATOM      4  C   UNL     1      29.262  37.884   6.295  1.00  0.00     0.001 A 
ATOM      5  C   UNL     1      28.895  38.517   7.459  1.00  0.00     0.018 A 
ATOM      6  C   UNL     1      27.652  38.338   8.036  1.00  0.00     0.043 A 
ATOM      7  Br  UNL     1      27.169  39.231   9.655  1.00  0.00    -0.048 Br
ENDROOT
BRANCH   1   8
ATOM      8  N   UNL     1      25.481  37.253   7.922  1.00  0.00    -0.219 N 
ATOM      9  C   UNL     1      23.233  35.329  10.042  1.00  0.00     0.070 C 
ATOM     10  C   UNL     1      23.896  36.279   9.118  1.00  0.00     0.080 A 
ATOM     11  C   UNL     1      25.214  36.237   8.790  1.00  0.00     0.140 A 
ATOM     12  N   UNL     1      23.366  37.313   8.451  1.00  0.00    -0.135 NA
ATOM     13  N   UNL     1      24.344  37.880   7.740  1.00  0.00    -0.062 NA
ENDBRANCH   1   8
TORSDOF 1
BEGIN_RES LYS A 135
REMARK  4 active torsions:
REMARK  status: ('A' for Active; 'I' for Inactive)
REMARK    1  A    between atoms: CA   and  CB  
REMARK    2  A    between atoms: CB   and  CG  
REMARK    3  A    between atoms: CG   and  CD  
REMARK    4  A    between atoms: CD   and  CE  
ROOT
ATOM      1  CA  LYS A 135      33.193  34.663   9.290  1.00 25.02     0.186 C 
ENDROOT
BRANCH   1   2
ATOM      2  CB  LYS A 135      32.060  35.360  10.034  1.00 26.63     0.034 C 
BRANCH   2   3
ATOM      3  CG  LYS A 135      30.889  35.714   9.154  1.00 29.45     0.005 C 
BRANCH   3   4
ATOM      4  CD  LYS A 135      30.398  34.490   8.396  1.00 32.00     0.041 C 
BRANCH   4   5
ATOM      5  CE  LYS A 135      28.882  34.462   8.355  1.00 34.25     0.338 C 
ATOM      6  NZ  LYS A 135      28.324  33.824   9.579  1.00 35.99     0.618 N 
ENDBRANCH   4   5
ENDBRANCH   3   4
ENDBRANCH   2   3
ENDBRANCH   1   2
END_RES LYS A 135
BEGIN_RES TYR A 136
REMARK  2 active torsions:
REMARK  status: ('A' for Active; 'I' for Inactive)
REMARK    5  A    between atoms: CA   and  CB  
REMARK    6  A    between atoms: CB   and  CG  
ROOT
ATOM      7  CA  TYR A 136      36.583  36.399   8.994  1.00 26.14     0.191 C 
ENDROOT
BRANCH   7   8
ATOM      8  CB  TYR A 136      37.367  36.835  10.240  1.00 28.16     0.060 C 
BRANCH   8   9
ATOM      9  CG  TYR A 136      37.174  38.296  10.565  1.00 31.88    -0.020 A 
ATOM     10  CD2 TYR A 136      37.595  38.826  11.786  1.00 32.67    -0.002 A 
ATOM     11  CE2 TYR A 136      37.410  40.185  12.079  1.00 33.89     0.027 A 
ATOM     12  CZ  TYR A 136      36.797  41.019  11.142  1.00 34.34     0.131 A 
ATOM     13  OH  TYR A 136      36.609  42.368  11.407  1.00 35.14    -0.190 OA
ATOM     14  CE1 TYR A 136      36.371  40.508   9.924  1.00 35.01     0.027 A 
ATOM     15  CD1 TYR A 136      36.556  39.153   9.646  1.00 33.57    -0.002 A 
ENDBRANCH   8   9
ENDBRANCH   7   8
END_RES TYR A 136
BEGIN_RES ASN A 133
REMARK  2 active torsions:
REMARK  status: ('A' for Active; 'I' for Inactive)
REMARK    7  A    between atoms: CA   and  CB  
REMARK    8  A    between atoms: CB   and  CG  
ROOT
ATOM     16  CA  ASN A 133      31.225  30.257  11.749  1.00 18.15     0.196 C 
ENDROOT
BRANCH  16  17
ATOM     17  CB  ASN A 133      30.092  31.240  11.460  1.00 18.27     0.126 C 
BRANCH  17  18
ATOM     18  CG  ASN A 133      28.752  30.581  11.346  1.00 18.94     0.276 C 
ATOM     19  OD1 ASN A 133      28.583  29.601  10.618  1.00 18.09    -0.269 OA
ATOM     20  ND2 ASN A 133      27.773  31.122  12.071  1.00 18.93    -0.107 N 
ENDBRANCH  17  18
ENDBRANCH  16  17
END_RES ASN A 133
