REMARK VINA RESULT:    -3.983      4.541      7.006
REMARK INTER + INTRA:          -9.991
REMARK INTER:                  -5.522
REMARK INTRA:                  -4.469
REMARK UNBOUND:                -4.262
REMARK SMILES Cc1cn(CC(=O)NCC(O)Cn2ccnc2[N+](=O)[O-])nn1
REMARK SMILES IDX 9 1 8 2 6 3 7 4 5 6 4 7 1 8 2 9 3 10 22 11 21 12 10 13 11 14
REMARK SMILES IDX 12 16 13 17 14 18 17 19 15 20 16 21 18 22 19 23 20 24
REMARK H PARENT 8 5 11 15
REMARK Flexibility Score: inf
ROOT
ATOM      1  C   UNL     1      27.880  28.851  19.442  1.00  0.00     0.151 C 
ENDROOT
BRANCH   1   2
ATOM      2  N   UNL     1      28.366  29.405  18.201  1.00  0.00    -0.352 N 
ATOM      3  C   UNL     1      27.683  29.370  16.957  1.00  0.00     0.241 C 
ATOM      4  O   UNL     1      26.558  28.829  16.890  1.00  0.00    -0.273 OA
ATOM      5  H   UNL     1      29.326  29.881  18.225  1.00  0.00     0.163 HD
BRANCH   3   6
ATOM      6  C   UNL     1      28.350  29.988  15.777  1.00  0.00     0.245 C 
BRANCH   6   7
ATOM      7  N   UNL     1      29.015  31.206  16.144  1.00  0.00    -0.243 N 
ATOM      8  C   UNL     1      31.713  33.650  16.438  1.00  0.00     0.070 C 
ATOM      9  C   UNL     1      30.470  32.823  16.446  1.00  0.00     0.080 A 
ATOM     10  C   UNL     1      30.286  31.578  15.909  1.00  0.00     0.134 A 
ATOM     11  N   UNL     1      29.301  33.186  17.001  1.00  0.00    -0.136 NA
ATOM     12  N   UNL     1      28.439  32.197  16.807  1.00  0.00    -0.067 NA
ENDBRANCH   6   7
ENDBRANCH   3   6
ENDBRANCH   1   2
BRANCH   1  13
ATOM     13  C   UNL     1      28.853  28.038  20.196  1.00  0.00     0.168 C 
BRANCH  13  14
ATOM     14  O   UNL     1      28.523  26.684  20.331  1.00  0.00    -0.388 OA
ATOM     15  H   UNL     1      28.130  26.476  21.191  1.00  0.00     0.211 HD
ENDBRANCH  13  14
BRANCH  13  16
ATOM     16  C   UNL     1      29.250  28.532  21.556  1.00  0.00     0.239 C 
BRANCH  16  17
ATOM     17  N   UNL     1      30.655  28.689  21.774  1.00  0.00    -0.227 N 
ATOM     18  C   UNL     1      31.453  27.805  22.465  1.00  0.00     0.204 A 
ATOM     19  C   UNL     1      31.381  29.742  21.380  1.00  0.00     0.434 A 
ATOM     20  C   UNL     1      32.709  28.354  22.487  1.00  0.00     0.245 A 
ATOM     21  N   UNL     1      32.665  29.509  21.840  1.00  0.00    -0.074 NA
BRANCH  19  22
ATOM     22  N   UNL     1      31.038  30.901  20.626  1.00  0.00    -0.047 N 
ATOM     23  O   UNL     1      30.944  32.025  21.116  1.00  0.00    -0.390 OA
ATOM     24  O   UNL     1      30.768  30.793  19.285  1.00  0.00    -0.390 OA
ENDBRANCH  19  22
ENDBRANCH  16  17
ENDBRANCH  13  16
ENDBRANCH   1  13
TORSDOF 8
BEGIN_RES LYS A 135
REMARK  4 active torsions:
REMARK  status: ('A' for Active; 'I' for Inactive)
REMARK    1  A    between atoms: CA   and  CB  
REMARK    2  A    between atoms: CB   and  CG  
REMARK    3  A    between atoms: CG   and  CD  
REMARK    4  A    between atoms: CD   and  CE  
ROOT
ATOM      1  CA  LYS A 135      33.193  34.663   9.290  1.00 25.02     0.186 C 
ENDROOT
BRANCH   1   2
ATOM      2  CB  LYS A 135      32.060  35.360  10.034  1.00 26.63     0.034 C 
BRANCH   2   3
ATOM      3  CG  LYS A 135      30.787  35.463   9.234  1.00 29.45     0.005 C 
BRANCH   3   4
ATOM      4  CD  LYS A 135      30.124  34.101   9.103  1.00 32.00     0.041 C 
BRANCH   4   5
ATOM      5  CE  LYS A 135      28.640  34.255   8.827  1.00 34.25     0.338 C 
ATOM      6  NZ  LYS A 135      28.404  35.099   7.623  1.00 35.99     0.618 N 
ENDBRANCH   4   5
ENDBRANCH   3   4
ENDBRANCH   2   3
ENDBRANCH   1   2
END_RES LYS A 135
BEGIN_RES TYR A 136
REMARK  2 active torsions:
REMARK  status: ('A' for Active; 'I' for Inactive)
REMARK    5  A    between atoms: CA   and  CB  
REMARK    6  A    between atoms: CB   and  CG  
ROOT
ATOM      7  CA  TYR A 136      36.583  36.399   8.994  1.00 26.14     0.191 C 
ENDROOT
BRANCH   7   8
ATOM      8  CB  TYR A 136      37.367  36.835  10.240  1.00 28.16     0.060 C 
BRANCH   8   9
ATOM      9  CG  TYR A 136      37.261  38.317  10.503  1.00 31.88    -0.020 A 
ATOM     10  CD2 TYR A 136      36.415  39.128   9.743  1.00 32.67    -0.002 A 
ATOM     11  CE2 TYR A 136      36.325  40.504   9.994  1.00 33.89     0.027 A 
ATOM     12  CZ  TYR A 136      37.091  41.074  11.014  1.00 34.34     0.131 A 
ATOM     13  OH  TYR A 136      37.013  42.433  11.285  1.00 35.14    -0.190 OA
ATOM     14  CE1 TYR A 136      37.938  40.284  11.778  1.00 35.01     0.027 A 
ATOM     15  CD1 TYR A 136      38.023  38.916  11.514  1.00 33.57    -0.002 A 
ENDBRANCH   8   9
ENDBRANCH   7   8
END_RES TYR A 136
BEGIN_RES ASN A 133
REMARK  2 active torsions:
REMARK  status: ('A' for Active; 'I' for Inactive)
REMARK    7  A    between atoms: CA   and  CB  
REMARK    8  A    between atoms: CB   and  CG  
ROOT
ATOM     16  CA  ASN A 133      31.225  30.257  11.749  1.00 18.15     0.196 C 
ENDROOT
BRANCH  16  17
ATOM     17  CB  ASN A 133      30.092  31.240  11.460  1.00 18.27     0.126 C 
BRANCH  17  18
ATOM     18  CG  ASN A 133      28.749  30.584  11.368  1.00 18.94     0.276 C 
ATOM     19  OD1 ASN A 133      28.560  29.617  10.628  1.00 18.09    -0.269 OA
ATOM     20  ND2 ASN A 133      27.790  31.112  12.127  1.00 18.93    -0.107 N 
ENDBRANCH  17  18
ENDBRANCH  16  17
END_RES ASN A 133
