REMARK VINA RESULT:    -4.157      4.513      9.590
REMARK INTER + INTRA:          -8.336
REMARK INTER:                  -5.200
REMARK INTRA:                  -3.137
REMARK UNBOUND:                -3.208
REMARK SMILES CCOC(=O)c1cccc(-n2cc(C)nn2)c1
REMARK SMILES IDX 4 1 5 2 6 3 10 4 17 5 9 6 8 7 7 8 11 9 14 10 13 11 12 12
REMARK SMILES IDX 15 13 16 14 3 15 2 16 1 17
REMARK H PARENT
REMARK Flexibility Score: inf
ROOT
ATOM      1  C   UNL     1      25.579  36.339   8.526  1.00  0.00     0.338 C 
ATOM      2  O   UNL     1      25.429  35.199   9.036  1.00  0.00    -0.246 OA
ENDROOT
BRANCH   1   3
ATOM      3  C   UNL     1      26.571  36.622   7.502  1.00  0.00     0.062 A 
ATOM      4  C   UNL     1      27.583  38.129   5.908  1.00  0.00     0.067 A 
ATOM      5  C   UNL     1      26.645  37.858   6.879  1.00  0.00     0.044 A 
ATOM      6  C   UNL     1      28.460  37.130   5.563  1.00  0.00     0.028 A 
ATOM      7  C   UNL     1      28.435  35.872   6.153  1.00  0.00     0.003 A 
ATOM      8  C   UNL     1      27.474  35.655   7.120  1.00  0.00     0.016 A 
BRANCH   4   9
ATOM      9  N   UNL     1      27.662  39.393   5.267  1.00  0.00    -0.220 N 
ATOM     10  C   UNL     1      29.398  42.282   3.780  1.00  0.00     0.070 C 
ATOM     11  C   UNL     1      28.447  41.267   4.307  1.00  0.00     0.080 A 
ATOM     12  C   UNL     1      28.779  40.071   4.909  1.00  0.00     0.140 A 
ATOM     13  N   UNL     1      27.099  41.282   4.313  1.00  0.00    -0.135 NA
ATOM     14  N   UNL     1      26.648  40.177   4.879  1.00  0.00    -0.062 NA
ENDBRANCH   4   9
ENDBRANCH   1   3
BRANCH   1  15
ATOM     15  O   UNL     1      24.739  37.337   8.992  1.00  0.00    -0.462 OA
BRANCH  15  16
ATOM     16  C   UNL     1      23.334  37.206   8.923  1.00  0.00     0.230 C 
ATOM     17  C   UNL     1      22.901  37.401   7.501  1.00  0.00     0.049 C 
ENDBRANCH  15  16
ENDBRANCH   1  15
TORSDOF 4
BEGIN_RES LYS A 135
REMARK  4 active torsions:
REMARK  status: ('A' for Active; 'I' for Inactive)
REMARK    1  A    between atoms: CA   and  CB  
REMARK    2  A    between atoms: CB   and  CG  
REMARK    3  A    between atoms: CG   and  CD  
REMARK    4  A    between atoms: CD   and  CE  
ROOT
ATOM      1  CA  LYS A 135      33.193  34.663   9.290  1.00 25.02     0.186 C 
ENDROOT
BRANCH   1   2
ATOM      2  CB  LYS A 135      32.060  35.360  10.034  1.00 26.63     0.034 C 
BRANCH   2   3
ATOM      3  CG  LYS A 135      30.783  35.449   9.239  1.00 29.45     0.005 C 
BRANCH   3   4
ATOM      4  CD  LYS A 135      30.157  34.073   9.072  1.00 32.00     0.041 C 
BRANCH   4   5
ATOM      5  CE  LYS A 135      28.819  34.006   9.783  1.00 34.25     0.338 C 
ATOM      6  NZ  LYS A 135      28.559  35.253  10.554  1.00 35.99     0.618 N 
ENDBRANCH   4   5
ENDBRANCH   3   4
ENDBRANCH   2   3
ENDBRANCH   1   2
END_RES LYS A 135
BEGIN_RES TYR A 136
REMARK  2 active torsions:
REMARK  status: ('A' for Active; 'I' for Inactive)
REMARK    5  A    between atoms: CA   and  CB  
REMARK    6  A    between atoms: CB   and  CG  
ROOT
ATOM      7  CA  TYR A 136      36.583  36.399   8.994  1.00 26.14     0.191 C 
ENDROOT
BRANCH   7   8
ATOM      8  CB  TYR A 136      37.367  36.835  10.240  1.00 28.16     0.060 C 
BRANCH   8   9
ATOM      9  CG  TYR A 136      37.203  38.304  10.544  1.00 31.88    -0.020 A 
ATOM     10  CD2 TYR A 136      36.452  39.135   9.710  1.00 32.67    -0.002 A 
ATOM     11  CE2 TYR A 136      36.307  40.499  10.001  1.00 33.89     0.027 A 
ATOM     12  CZ  TYR A 136      36.919  41.035  11.137  1.00 34.34     0.131 A 
ATOM     13  OH  TYR A 136      36.783  42.381  11.448  1.00 35.14    -0.190 OA
ATOM     14  CE1 TYR A 136      37.670  40.224  11.975  1.00 35.01     0.027 A 
ATOM     15  CD1 TYR A 136      37.812  38.869  11.672  1.00 33.57    -0.002 A 
ENDBRANCH   8   9
ENDBRANCH   7   8
END_RES TYR A 136
BEGIN_RES ASN A 133
REMARK  2 active torsions:
REMARK  status: ('A' for Active; 'I' for Inactive)
REMARK    7  A    between atoms: CA   and  CB  
REMARK    8  A    between atoms: CB   and  CG  
ROOT
ATOM     16  CA  ASN A 133      31.225  30.257  11.749  1.00 18.15     0.196 C 
ENDROOT
BRANCH  16  17
ATOM     17  CB  ASN A 133      30.092  31.240  11.460  1.00 18.27     0.126 C 
BRANCH  17  18
ATOM     18  CG  ASN A 133      28.756  30.578  11.319  1.00 18.94     0.276 C 
ATOM     19  OD1 ASN A 133      28.598  29.613  10.569  1.00 18.09    -0.269 OA
ATOM     20  ND2 ASN A 133      27.768  31.099  12.046  1.00 18.93    -0.107 N 
ENDBRANCH  17  18
ENDBRANCH  16  17
END_RES ASN A 133
