REMARK VINA RESULT:    -4.302      2.383      3.625
REMARK INTER + INTRA:          -8.388
REMARK INTER:                  -4.867
REMARK INTRA:                  -3.521
REMARK UNBOUND:                -3.332
REMARK SMILES Cc1cn(CC(=O)Nc2ncccn2)nn1
REMARK SMILES IDX 6 1 7 2 8 3 5 5 4 6 1 7 2 8 3 9 16 10 15 11 9 12 10 13 14 14
REMARK SMILES IDX 11 15 13 16 12 17
REMARK H PARENT 8 4
REMARK Flexibility Score: inf
ROOT
ATOM      1  C   UNL     1      33.819  35.328  13.168  1.00  0.00     0.248 C 
ATOM      2  O   UNL     1      33.898  34.622  14.205  1.00  0.00    -0.272 OA
ATOM      3  N   UNL     1      35.016  35.461  12.388  1.00  0.00    -0.293 N 
ATOM      4  H   UNL     1      34.973  36.041  11.526  1.00  0.00     0.173 HD
ENDROOT
BRANCH   1   5
ATOM      5  C   UNL     1      32.608  36.009  12.715  1.00  0.00     0.246 C 
BRANCH   5   6
ATOM      6  N   UNL     1      32.904  37.317  12.163  1.00  0.00    -0.243 N 
ATOM      7  C   UNL     1      32.650  40.060   9.727  1.00  0.00     0.070 C 
ATOM      8  C   UNL     1      32.930  39.112  10.849  1.00  0.00     0.080 A 
ATOM      9  C   UNL     1      32.404  37.844  11.036  1.00  0.00     0.134 A 
ATOM     10  N   UNL     1      33.752  39.305  11.903  1.00  0.00    -0.136 NA
ATOM     11  N   UNL     1      33.719  38.235  12.659  1.00  0.00    -0.067 NA
ENDBRANCH   5   6
ENDBRANCH   1   5
BRANCH   3  12
ATOM     12  C   UNL     1      36.228  34.837  12.754  1.00  0.00     0.229 A 
ATOM     13  N   UNL     1      37.112  35.428  13.568  1.00  0.00    -0.221 NA
ATOM     14  N   UNL     1      36.508  33.619  12.276  1.00  0.00    -0.221 NA
ATOM     15  C   UNL     1      38.275  34.850  13.929  1.00  0.00     0.117 A 
ATOM     16  C   UNL     1      37.645  32.962  12.582  1.00  0.00     0.117 A 
ATOM     17  C   UNL     1      38.539  33.581  13.416  1.00  0.00     0.040 A 
ENDBRANCH   3  12
TORSDOF 3
BEGIN_RES LYS A 135
REMARK  4 active torsions:
REMARK  status: ('A' for Active; 'I' for Inactive)
REMARK    1  A    between atoms: CA   and  CB  
REMARK    2  A    between atoms: CB   and  CG  
REMARK    3  A    between atoms: CG   and  CD  
REMARK    4  A    between atoms: CD   and  CE  
ROOT
ATOM      1  CA  LYS A 135      33.193  34.663   9.290  1.00 25.02     0.186 C 
ENDROOT
BRANCH   1   2
ATOM      2  CB  LYS A 135      32.060  35.360  10.034  1.00 26.63     0.034 C 
BRANCH   2   3
ATOM      3  CG  LYS A 135      30.702  34.771   9.752  1.00 29.45     0.005 C 
BRANCH   3   4
ATOM      4  CD  LYS A 135      30.532  34.502   8.264  1.00 32.00     0.041 C 
BRANCH   4   5
ATOM      5  CE  LYS A 135      29.143  34.901   7.806  1.00 34.25     0.338 C 
ATOM      6  NZ  LYS A 135      29.074  36.358   7.506  1.00 35.99     0.618 N 
ENDBRANCH   4   5
ENDBRANCH   3   4
ENDBRANCH   2   3
ENDBRANCH   1   2
END_RES LYS A 135
BEGIN_RES TYR A 136
REMARK  2 active torsions:
REMARK  status: ('A' for Active; 'I' for Inactive)
REMARK    5  A    between atoms: CA   and  CB  
REMARK    6  A    between atoms: CB   and  CG  
ROOT
ATOM      7  CA  TYR A 136      36.583  36.399   8.994  1.00 26.14     0.191 C 
ENDROOT
BRANCH   7   8
ATOM      8  CB  TYR A 136      37.367  36.835  10.240  1.00 28.16     0.060 C 
BRANCH   8   9
ATOM      9  CG  TYR A 136      37.173  38.295  10.566  1.00 31.88    -0.020 A 
ATOM     10  CD2 TYR A 136      37.474  38.800  11.833  1.00 32.67    -0.002 A 
ATOM     11  CE2 TYR A 136      37.289  40.158  12.126  1.00 33.89     0.027 A 
ATOM     12  CZ  TYR A 136      36.797  41.019  11.142  1.00 34.34     0.131 A 
ATOM     13  OH  TYR A 136      36.612  42.369  11.408  1.00 35.14    -0.190 OA
ATOM     14  CE1 TYR A 136      36.492  40.535   9.878  1.00 35.01     0.027 A 
ATOM     15  CD1 TYR A 136      36.674  39.179   9.600  1.00 33.57    -0.002 A 
ENDBRANCH   8   9
ENDBRANCH   7   8
END_RES TYR A 136
BEGIN_RES ASN A 133
REMARK  2 active torsions:
REMARK  status: ('A' for Active; 'I' for Inactive)
REMARK    7  A    between atoms: CA   and  CB  
REMARK    8  A    between atoms: CB   and  CG  
ROOT
ATOM     16  CA  ASN A 133      31.225  30.257  11.749  1.00 18.15     0.196 C 
ENDROOT
BRANCH  16  17
ATOM     17  CB  ASN A 133      30.092  31.240  11.460  1.00 18.27     0.126 C 
BRANCH  17  18
ATOM     18  CG  ASN A 133      28.755  30.579  11.329  1.00 18.94     0.276 C 
ATOM     19  OD1 ASN A 133      28.587  29.623  10.570  1.00 18.09    -0.269 OA
ATOM     20  ND2 ASN A 133      27.776  31.091  12.074  1.00 18.93    -0.107 N 
ENDBRANCH  17  18
ENDBRANCH  16  17
END_RES ASN A 133
