REMARK VINA RESULT:    -3.172      7.646     11.870
REMARK INTER + INTRA:          -6.506
REMARK INTER:                  -3.291
REMARK INTRA:                  -3.215
REMARK UNBOUND:                -3.149
REMARK SMILES Cc1cn(-c2ccncc2)nn1
REMARK SMILES IDX 1 1 2 2 3 3 4 4 11 5 12 6 5 7 6 8 10 9 7 10 9 11 8 12
REMARK H PARENT
REMARK Flexibility Score: inf
ROOT
ATOM      1  C   UNL     1      30.327  31.263  16.703  1.00  0.00     0.070 C 
ATOM      2  C   UNL     1      30.545  32.297  15.673  1.00  0.00     0.080 A 
ATOM      3  C   UNL     1      31.681  33.063  15.446  1.00  0.00     0.140 A 
ATOM      4  N   UNL     1      31.453  33.882  14.408  1.00  0.00    -0.220 N 
ATOM      5  N   UNL     1      30.220  33.638  13.997  1.00  0.00    -0.062 NA
ATOM      6  N   UNL     1      29.661  32.694  14.741  1.00  0.00    -0.135 NA
ENDROOT
BRANCH   4   7
ATOM      7  C   UNL     1      32.376  34.822  13.869  1.00  0.00     0.069 A 
ATOM      8  C   UNL     1      32.017  35.618  12.794  1.00  0.00     0.048 A 
ATOM      9  C   UNL     1      33.646  34.993  14.367  1.00  0.00     0.048 A 
ATOM     10  C   UNL     1      32.910  36.518  12.283  1.00  0.00     0.113 A 
ATOM     11  C   UNL     1      34.543  35.900  13.850  1.00  0.00     0.113 A 
ATOM     12  N   UNL     1      34.133  36.641  12.808  1.00  0.00    -0.265 NA
ENDBRANCH   4   7
TORSDOF 1
BEGIN_RES LYS A 135
REMARK  4 active torsions:
REMARK  status: ('A' for Active; 'I' for Inactive)
REMARK    1  A    between atoms: CA   and  CB  
REMARK    2  A    between atoms: CB   and  CG  
REMARK    3  A    between atoms: CG   and  CD  
REMARK    4  A    between atoms: CD   and  CE  
ROOT
ATOM      1  CA  LYS A 135      33.193  34.663   9.290  1.00 25.02     0.186 C 
ENDROOT
BRANCH   1   2
ATOM      2  CB  LYS A 135      32.060  35.360  10.034  1.00 26.63     0.034 C 
BRANCH   2   3
ATOM      3  CG  LYS A 135      30.831  35.579   9.191  1.00 29.45     0.005 C 
BRANCH   3   4
ATOM      4  CD  LYS A 135      30.252  34.250   8.730  1.00 32.00     0.041 C 
BRANCH   4   5
ATOM      5  CE  LYS A 135      28.760  34.375   8.484  1.00 34.25     0.338 C 
ATOM      6  NZ  LYS A 135      27.980  33.747   9.586  1.00 35.99     0.618 N 
ENDBRANCH   4   5
ENDBRANCH   3   4
ENDBRANCH   2   3
ENDBRANCH   1   2
END_RES LYS A 135
BEGIN_RES TYR A 136
REMARK  2 active torsions:
REMARK  status: ('A' for Active; 'I' for Inactive)
REMARK    5  A    between atoms: CA   and  CB  
REMARK    6  A    between atoms: CB   and  CG  
ROOT
ATOM      7  CA  TYR A 136      36.583  36.399   8.994  1.00 26.14     0.191 C 
ENDROOT
BRANCH   7   8
ATOM      8  CB  TYR A 136      37.367  36.835  10.240  1.00 28.16     0.060 C 
BRANCH   8   9
ATOM      9  CG  TYR A 136      37.180  38.297  10.561  1.00 31.88    -0.020 A 
ATOM     10  CD2 TYR A 136      36.580  39.167   9.648  1.00 32.67    -0.002 A 
ATOM     11  CE2 TYR A 136      36.412  40.525   9.955  1.00 33.89     0.027 A 
ATOM     12  CZ  TYR A 136      36.849  41.016  11.188  1.00 34.34     0.131 A 
ATOM     13  OH  TYR A 136      36.686  42.354  11.516  1.00 35.14    -0.190 OA
ATOM     14  CE1 TYR A 136      37.447  40.166  12.107  1.00 35.01     0.027 A 
ATOM     15  CD1 TYR A 136      37.615  38.818  11.787  1.00 33.57    -0.002 A 
ENDBRANCH   8   9
ENDBRANCH   7   8
END_RES TYR A 136
BEGIN_RES ASN A 133
REMARK  2 active torsions:
REMARK  status: ('A' for Active; 'I' for Inactive)
REMARK    7  A    between atoms: CA   and  CB  
REMARK    8  A    between atoms: CB   and  CG  
ROOT
ATOM     16  CA  ASN A 133      31.225  30.257  11.749  1.00 18.15     0.196 C 
ENDROOT
BRANCH  16  17
ATOM     17  CB  ASN A 133      30.092  31.240  11.460  1.00 18.27     0.126 C 
BRANCH  17  18
ATOM     18  CG  ASN A 133      28.750  30.583  11.358  1.00 18.94     0.276 C 
ATOM     19  OD1 ASN A 133      28.573  29.602  10.634  1.00 18.09    -0.269 OA
ATOM     20  ND2 ASN A 133      27.779  31.126  12.091  1.00 18.93    -0.107 N 
ENDBRANCH  17  18
ENDBRANCH  16  17
END_RES ASN A 133
