REMARK VINA RESULT:    -3.102      5.594      7.535
REMARK INTER + INTRA:          -7.558
REMARK INTER:                  -4.100
REMARK INTRA:                  -3.459
REMARK UNBOUND:                -3.459
REMARK SMILES CCOC(CCn1cc(C)nn1)OCC
REMARK SMILES IDX 5 1 6 2 7 3 10 4 9 5 8 6 11 7 12 8 4 9 3 10 2 11 1 12 13 13
REMARK SMILES IDX 14 14 15 15
REMARK H PARENT
REMARK Flexibility Score: inf
ROOT
ATOM      1  C   UNL     1      29.881  31.436  19.162  1.00  0.00     0.086 C 
ENDROOT
BRANCH   1   2
ATOM      2  C   UNL     1      30.680  30.454  19.886  1.00  0.00     0.151 C 
BRANCH   2   3
ATOM      3  N   UNL     1      29.995  29.238  20.228  1.00  0.00    -0.252 N 
ATOM      4  C   UNL     1      26.998  27.136  20.297  1.00  0.00     0.070 C 
ATOM      5  C   UNL     1      28.343  27.792  20.401  1.00  0.00     0.080 A 
ATOM      6  C   UNL     1      28.677  29.030  19.923  1.00  0.00     0.134 A 
ATOM      7  N   UNL     1      29.432  27.283  20.972  1.00  0.00    -0.136 NA
ATOM      8  N   UNL     1      30.386  28.182  20.843  1.00  0.00    -0.067 NA
ENDBRANCH   2   3
ENDBRANCH   1   2
BRANCH   1   9
ATOM      9  C   UNL     1      30.240  31.400  17.496  1.00  0.00     0.251 C 
BRANCH   9  10
ATOM     10  O   UNL     1      28.746  31.199  16.970  1.00  0.00    -0.353 OA
BRANCH  10  11
ATOM     11  C   UNL     1      28.677  30.328  15.997  1.00  0.00     0.160 C 
ATOM     12  C   UNL     1      27.564  29.318  16.417  1.00  0.00     0.035 C 
ENDBRANCH  10  11
ENDBRANCH   9  10
BRANCH   9  13
ATOM     13  O   UNL     1      30.224  32.646  17.390  1.00  0.00    -0.353 OA
BRANCH  13  14
ATOM     14  C   UNL     1      30.625  33.567  16.551  1.00  0.00     0.160 C 
ATOM     15  C   UNL     1      31.562  32.869  15.523  1.00  0.00     0.035 C 
ENDBRANCH  13  14
ENDBRANCH   9  13
ENDBRANCH   1   9
TORSDOF 7
BEGIN_RES LYS A 135
REMARK  4 active torsions:
REMARK  status: ('A' for Active; 'I' for Inactive)
REMARK    1  A    between atoms: CA   and  CB  
REMARK    2  A    between atoms: CB   and  CG  
REMARK    3  A    between atoms: CG   and  CD  
REMARK    4  A    between atoms: CD   and  CE  
ROOT
ATOM      1  CA  LYS A 135      33.193  34.663   9.290  1.00 25.02     0.186 C 
ENDROOT
BRANCH   1   2
ATOM      2  CB  LYS A 135      32.060  35.360  10.034  1.00 26.63     0.034 C 
BRANCH   2   3
ATOM      3  CG  LYS A 135      30.837  35.595   9.186  1.00 29.45     0.005 C 
BRANCH   3   4
ATOM      4  CD  LYS A 135      30.277  34.276   8.675  1.00 32.00     0.041 C 
BRANCH   4   5
ATOM      5  CE  LYS A 135      28.762  34.281   8.737  1.00 34.25     0.338 C 
ATOM      6  NZ  LYS A 135      28.182  35.101   7.636  1.00 35.99     0.618 N 
ENDBRANCH   4   5
ENDBRANCH   3   4
ENDBRANCH   2   3
ENDBRANCH   1   2
END_RES LYS A 135
BEGIN_RES TYR A 136
REMARK  2 active torsions:
REMARK  status: ('A' for Active; 'I' for Inactive)
REMARK    5  A    between atoms: CA   and  CB  
REMARK    6  A    between atoms: CB   and  CG  
ROOT
ATOM      7  CA  TYR A 136      36.583  36.399   8.994  1.00 26.14     0.191 C 
ENDROOT
BRANCH   7   8
ATOM      8  CB  TYR A 136      37.367  36.835  10.240  1.00 28.16     0.060 C 
BRANCH   8   9
ATOM      9  CG  TYR A 136      37.181  38.298  10.560  1.00 31.88    -0.020 A 
ATOM     10  CD2 TYR A 136      37.062  38.740  11.879  1.00 32.67    -0.002 A 
ATOM     11  CE2 TYR A 136      36.888  40.101  12.165  1.00 33.89     0.027 A 
ATOM     12  CZ  TYR A 136      36.833  41.028  11.122  1.00 34.34     0.131 A 
ATOM     13  OH  TYR A 136      36.669  42.382  11.382  1.00 35.14    -0.190 OA
ATOM     14  CE1 TYR A 136      36.949  40.606   9.805  1.00 35.01     0.027 A 
ATOM     15  CD1 TYR A 136      37.116  39.247   9.532  1.00 33.57    -0.002 A 
ENDBRANCH   8   9
ENDBRANCH   7   8
END_RES TYR A 136
BEGIN_RES ASN A 133
REMARK  2 active torsions:
REMARK  status: ('A' for Active; 'I' for Inactive)
REMARK    7  A    between atoms: CA   and  CB  
REMARK    8  A    between atoms: CB   and  CG  
ROOT
ATOM     16  CA  ASN A 133      31.225  30.257  11.749  1.00 18.15     0.196 C 
ENDROOT
BRANCH  16  17
ATOM     17  CB  ASN A 133      30.092  31.240  11.460  1.00 18.27     0.126 C 
BRANCH  17  18
ATOM     18  CG  ASN A 133      28.749  30.585  11.369  1.00 18.94     0.276 C 
ATOM     19  OD1 ASN A 133      28.562  29.612  10.636  1.00 18.09    -0.269 OA
ATOM     20  ND2 ASN A 133      27.788  31.119  12.121  1.00 18.93    -0.107 N 
ENDBRANCH  17  18
ENDBRANCH  16  17
END_RES ASN A 133
