REMARK VINA RESULT:    -2.828      1.996      3.490
REMARK INTER + INTRA:          -6.857
REMARK INTER:                  -3.801
REMARK INTRA:                  -3.055
REMARK UNBOUND:                -3.368
REMARK SMILES CCOC(=O)Cn1cc(C)nn1
REMARK SMILES IDX 4 1 5 2 6 3 7 4 10 5 9 6 8 7 11 8 12 9 3 10 2 11 1 12
REMARK H PARENT
REMARK Flexibility Score: inf
ROOT
ATOM      1  C   UNL     1      22.099  34.564  -2.326  1.00  0.00     0.327 C 
ATOM      2  O   UNL     1      23.331  34.530  -2.640  1.00  0.00    -0.250 OA
ENDROOT
BRANCH   1   3
ATOM      3  C   UNL     1      21.349  33.296  -2.358  1.00  0.00     0.268 C 
BRANCH   3   4
ATOM      4  N   UNL     1      21.850  32.339  -1.406  1.00  0.00    -0.241 N 
ATOM      5  C   UNL     1      22.898  29.114  -0.074  1.00  0.00     0.070 C 
ATOM      6  C   UNL     1      22.521  30.514  -0.401  1.00  0.00     0.080 A 
ATOM      7  C   UNL     1      22.051  31.038  -1.573  1.00  0.00     0.134 A 
ATOM      8  N   UNL     1      22.601  31.542   0.487  1.00  0.00    -0.136 NA
ATOM      9  N   UNL     1      22.193  32.609  -0.155  1.00  0.00    -0.067 NA
ENDBRANCH   3   4
ENDBRANCH   1   3
BRANCH   1  10
ATOM     10  O   UNL     1      21.601  35.796  -1.986  1.00  0.00    -0.465 OA
BRANCH  10  11
ATOM     11  C   UNL     1      21.116  36.068  -0.670  1.00  0.00     0.229 C 
ATOM     12  C   UNL     1      22.222  36.296   0.300  1.00  0.00     0.049 C 
ENDBRANCH  10  11
ENDBRANCH   1  10
TORSDOF 4
BEGIN_RES LYS A 135
REMARK  4 active torsions:
REMARK  status: ('A' for Active; 'I' for Inactive)
REMARK    1  A    between atoms: CA   and  CB  
REMARK    2  A    between atoms: CB   and  CG  
REMARK    3  A    between atoms: CG   and  CD  
REMARK    4  A    between atoms: CD   and  CE  
ROOT
ATOM      1  CA  LYS A 135      33.193  34.663   9.290  1.00 25.02     0.186 C 
ENDROOT
BRANCH   1   2
ATOM      2  CB  LYS A 135      32.060  35.360  10.034  1.00 26.63     0.034 C 
BRANCH   2   3
ATOM      3  CG  LYS A 135      30.715  34.713   9.826  1.00 29.45     0.005 C 
BRANCH   3   4
ATOM      4  CD  LYS A 135      30.414  34.566   8.342  1.00 32.00     0.041 C 
BRANCH   4   5
ATOM      5  CE  LYS A 135      29.410  35.611   7.896  1.00 34.25     0.338 C 
ATOM      6  NZ  LYS A 135      28.082  34.997   7.620  1.00 35.99     0.618 N 
ENDBRANCH   4   5
ENDBRANCH   3   4
ENDBRANCH   2   3
ENDBRANCH   1   2
END_RES LYS A 135
BEGIN_RES TYR A 136
REMARK  2 active torsions:
REMARK  status: ('A' for Active; 'I' for Inactive)
REMARK    5  A    between atoms: CA   and  CB  
REMARK    6  A    between atoms: CB   and  CG  
ROOT
ATOM      7  CA  TYR A 136      36.583  36.399   8.994  1.00 26.14     0.191 C 
ENDROOT
BRANCH   7   8
ATOM      8  CB  TYR A 136      37.367  36.835  10.240  1.00 28.16     0.060 C 
BRANCH   8   9
ATOM      9  CG  TYR A 136      36.633  37.872  11.054  1.00 31.88    -0.020 A 
ATOM     10  CD2 TYR A 136      36.018  38.968  10.444  1.00 32.67    -0.002 A 
ATOM     11  CE2 TYR A 136      35.340  39.926  11.209  1.00 33.89     0.027 A 
ATOM     12  CZ  TYR A 136      35.277  39.788  12.598  1.00 34.34     0.131 A 
ATOM     13  OH  TYR A 136      34.605  40.721  13.375  1.00 35.14    -0.190 OA
ATOM     14  CE1 TYR A 136      35.883  38.706  13.221  1.00 35.01     0.027 A 
ATOM     15  CD1 TYR A 136      36.561  37.761  12.448  1.00 33.57    -0.002 A 
ENDBRANCH   8   9
ENDBRANCH   7   8
END_RES TYR A 136
BEGIN_RES ASN A 133
REMARK  2 active torsions:
REMARK  status: ('A' for Active; 'I' for Inactive)
REMARK    7  A    between atoms: CA   and  CB  
REMARK    8  A    between atoms: CB   and  CG  
ROOT
ATOM     16  CA  ASN A 133      31.225  30.257  11.749  1.00 18.15     0.196 C 
ENDROOT
BRANCH  16  17
ATOM     17  CB  ASN A 133      30.092  31.240  11.460  1.00 18.27     0.126 C 
BRANCH  17  18
ATOM     18  CG  ASN A 133      28.751  30.582  11.352  1.00 18.94     0.276 C 
ATOM     19  OD1 ASN A 133      28.579  29.599  10.629  1.00 18.09    -0.269 OA
ATOM     20  ND2 ASN A 133      27.775  31.126  12.077  1.00 18.93    -0.107 N 
ENDBRANCH  17  18
ENDBRANCH  16  17
END_RES ASN A 133
