REMARK VINA RESULT:    -3.880      2.404      6.366
REMARK INTER + INTRA:          -9.843
REMARK INTER:                  -6.150
REMARK INTRA:                  -3.693
REMARK UNBOUND:                -4.262
REMARK SMILES Cc1cn(CC(=O)NCC(O)Cn2ccnc2[N+](=O)[O-])nn1
REMARK SMILES IDX 9 1 8 2 6 3 7 4 5 6 4 7 1 8 2 9 3 10 22 11 21 12 10 13 11 14
REMARK SMILES IDX 12 16 13 17 14 18 17 19 15 20 16 21 18 22 19 23 20 24
REMARK H PARENT 8 5 11 15
REMARK Flexibility Score: inf
ROOT
ATOM      1  C   UNL     1      31.963  33.654  15.608  1.00  0.00     0.151 C 
ENDROOT
BRANCH   1   2
ATOM      2  N   UNL     1      32.729  34.140  14.485  1.00  0.00    -0.352 N 
ATOM      3  C   UNL     1      32.574  35.407  13.866  1.00  0.00     0.241 C 
ATOM      4  O   UNL     1      31.717  36.204  14.305  1.00  0.00    -0.273 OA
ATOM      5  H   UNL     1      33.477  33.483  14.087  1.00  0.00     0.163 HD
BRANCH   3   6
ATOM      6  C   UNL     1      33.453  35.730  12.707  1.00  0.00     0.245 C 
BRANCH   6   7
ATOM      7  N   UNL     1      34.824  35.429  13.005  1.00  0.00    -0.243 N 
ATOM      8  C   UNL     1      38.318  36.017  13.894  1.00  0.00     0.070 C 
ATOM      9  C   UNL     1      36.956  35.529  13.523  1.00  0.00     0.080 A 
ATOM     10  C   UNL     1      35.823  36.271  13.324  1.00  0.00     0.134 A 
ATOM     11  N   UNL     1      36.622  34.244  13.319  1.00  0.00    -0.136 NA
ATOM     12  N   UNL     1      35.334  34.207  13.008  1.00  0.00    -0.067 NA
ENDBRANCH   6   7
ENDBRANCH   3   6
ENDBRANCH   1   2
BRANCH   1  13
ATOM     13  C   UNL     1      31.288  32.358  15.401  1.00  0.00     0.168 C 
BRANCH  13  14
ATOM     14  O   UNL     1      30.493  32.274  14.252  1.00  0.00    -0.388 OA
ATOM     15  H   UNL     1      29.546  32.337  14.444  1.00  0.00     0.211 HD
ENDBRANCH  13  14
BRANCH  13  16
ATOM     16  C   UNL     1      30.474  31.820  16.541  1.00  0.00     0.239 C 
BRANCH  16  17
ATOM     17  N   UNL     1      29.101  31.543  16.247  1.00  0.00    -0.227 N 
ATOM     18  C   UNL     1      28.573  30.287  16.050  1.00  0.00     0.204 A 
ATOM     19  C   UNL     1      28.150  32.468  16.075  1.00  0.00     0.434 A 
ATOM     20  C   UNL     1      27.249  30.470  15.744  1.00  0.00     0.245 A 
ATOM     21  N   UNL     1      26.998  31.770  15.760  1.00  0.00    -0.074 NA
BRANCH  19  22
ATOM     22  N   UNL     1      28.177  33.888  16.188  1.00  0.00    -0.047 N 
ATOM     23  O   UNL     1      27.783  34.496  17.183  1.00  0.00    -0.390 OA
ATOM     24  O   UNL     1      28.637  34.652  15.146  1.00  0.00    -0.390 OA
ENDBRANCH  19  22
ENDBRANCH  16  17
ENDBRANCH  13  16
ENDBRANCH   1  13
TORSDOF 8
BEGIN_RES LYS A 135
REMARK  4 active torsions:
REMARK  status: ('A' for Active; 'I' for Inactive)
REMARK    1  A    between atoms: CA   and  CB  
REMARK    2  A    between atoms: CB   and  CG  
REMARK    3  A    between atoms: CG   and  CD  
REMARK    4  A    between atoms: CD   and  CE  
ROOT
ATOM      1  CA  LYS A 135      33.193  34.663   9.290  1.00 25.02     0.186 C 
ENDROOT
BRANCH   1   2
ATOM      2  CB  LYS A 135      32.060  35.360  10.034  1.00 26.63     0.034 C 
BRANCH   2   3
ATOM      3  CG  LYS A 135      30.726  34.676   9.879  1.00 29.45     0.005 C 
BRANCH   3   4
ATOM      4  CD  LYS A 135      30.354  34.553   8.409  1.00 32.00     0.041 C 
BRANCH   4   5
ATOM      5  CE  LYS A 135      29.472  35.711   7.984  1.00 34.25     0.338 C 
ATOM      6  NZ  LYS A 135      28.925  35.495   6.616  1.00 35.99     0.618 N 
ENDBRANCH   4   5
ENDBRANCH   3   4
ENDBRANCH   2   3
ENDBRANCH   1   2
END_RES LYS A 135
BEGIN_RES TYR A 136
REMARK  2 active torsions:
REMARK  status: ('A' for Active; 'I' for Inactive)
REMARK    5  A    between atoms: CA   and  CB  
REMARK    6  A    between atoms: CB   and  CG  
ROOT
ATOM      7  CA  TYR A 136      36.583  36.399   8.994  1.00 26.14     0.191 C 
ENDROOT
BRANCH   7   8
ATOM      8  CB  TYR A 136      37.367  36.835  10.240  1.00 28.16     0.060 C 
BRANCH   8   9
ATOM      9  CG  TYR A 136      37.235  38.312  10.521  1.00 31.88    -0.020 A 
ATOM     10  CD2 TYR A 136      37.966  38.921  11.544  1.00 32.67    -0.002 A 
ATOM     11  CE2 TYR A 136      37.834  40.293  11.798  1.00 33.89     0.027 A 
ATOM     12  CZ  TYR A 136      36.963  41.062  11.023  1.00 34.34     0.131 A 
ATOM     13  OH  TYR A 136      36.823  42.424  11.252  1.00 35.14    -0.190 OA
ATOM     14  CE1 TYR A 136      36.229  40.473  10.004  1.00 35.01     0.027 A 
ATOM     15  CD1 TYR A 136      36.363  39.104   9.764  1.00 33.57    -0.002 A 
ENDBRANCH   8   9
ENDBRANCH   7   8
END_RES TYR A 136
BEGIN_RES ASN A 133
REMARK  2 active torsions:
REMARK  status: ('A' for Active; 'I' for Inactive)
REMARK    7  A    between atoms: CA   and  CB  
REMARK    8  A    between atoms: CB   and  CG  
ROOT
ATOM     16  CA  ASN A 133      31.225  30.257  11.749  1.00 18.15     0.196 C 
ENDROOT
BRANCH  16  17
ATOM     17  CB  ASN A 133      30.092  31.240  11.460  1.00 18.27     0.126 C 
BRANCH  17  18
ATOM     18  CG  ASN A 133      28.747  30.586  11.383  1.00 18.94     0.276 C 
ATOM     19  OD1 ASN A 133      28.555  29.604  10.663  1.00 18.09    -0.269 OA
ATOM     20  ND2 ASN A 133      27.790  31.133  12.131  1.00 18.93    -0.107 N 
ENDBRANCH  17  18
ENDBRANCH  16  17
END_RES ASN A 133
