REMARK VINA RESULT:    -5.012      2.926      4.073
REMARK INTER + INTRA:          -9.548
REMARK INTER:                  -5.977
REMARK INTRA:                  -3.571
REMARK UNBOUND:                -3.071
REMARK SMILES Cc1cn(C[C@@H](C)CN2CCN(c3ccc(Cl)cc3)CC2)nn1
REMARK SMILES IDX 6 1 7 2 5 3 4 4 1 5 2 6 3 7 23 8 22 9 8 10 9 11 10 12 21 13
REMARK SMILES IDX 11 14 20 15 12 16 13 17 14 18 19 19 15 20 18 21 16 22 17 23
REMARK H PARENT
REMARK Flexibility Score: inf
ROOT
ATOM      1  C   UNL     1      38.165  35.120  13.631  1.00  0.00     0.022 C 
ATOM      2  C   UNL     1      38.642  35.251  12.214  1.00  0.00     0.011 C 
ENDROOT
BRANCH   1   3
ATOM      3  C   UNL     1      39.208  34.488  14.488  1.00  0.00     0.150 C 
BRANCH   3   4
ATOM      4  N   UNL     1      38.890  34.607  15.892  1.00  0.00    -0.252 N 
ATOM      5  C   UNL     1      38.245  33.150  19.174  1.00  0.00     0.070 C 
ATOM      6  C   UNL     1      38.464  34.009  17.965  1.00  0.00     0.080 A 
ATOM      7  C   UNL     1      38.768  33.527  16.711  1.00  0.00     0.134 A 
ATOM      8  N   UNL     1      38.415  35.350  17.861  1.00  0.00    -0.136 NA
ATOM      9  N   UNL     1      38.677  35.693  16.588  1.00  0.00    -0.067 NA
ENDBRANCH   3   4
ENDBRANCH   1   3
BRANCH   1  10
ATOM     10  C   UNL     1      36.891  34.268  13.707  1.00  0.00     0.089 C 
BRANCH  10  11
ATOM     11  N   UNL     1      35.811  35.141  13.903  1.00  0.00    -0.299 NA
ATOM     12  C   UNL     1      34.507  34.736  13.601  1.00  0.00     0.106 C 
ATOM     13  C   UNL     1      36.020  36.425  14.424  1.00  0.00     0.106 C 
ATOM     14  C   UNL     1      33.752  35.754  12.754  1.00  0.00     0.132 C 
ATOM     15  C   UNL     1      34.641  37.074  14.623  1.00  0.00     0.132 C 
ATOM     16  N   UNL     1      34.036  37.064  13.310  1.00  0.00    -0.369 N 
BRANCH  16  17
ATOM     17  C   UNL     1      33.723  38.241  12.582  1.00  0.00     0.037 A 
ATOM     18  C   UNL     1      33.463  38.289  11.237  1.00  0.00     0.027 A 
ATOM     19  C   UNL     1      33.678  39.450  13.272  1.00  0.00     0.027 A 
ATOM     20  C   UNL     1      33.165  39.448  10.546  1.00  0.00     0.022 A 
ATOM     21  C   UNL     1      33.384  40.624  12.615  1.00  0.00     0.022 A 
ATOM     22  C   UNL     1      33.126  40.629  11.249  1.00  0.00     0.041 A 
ATOM     23  Cl  UNL     1      32.759  42.146  10.466  1.00  0.00    -0.084 Cl
ENDBRANCH  16  17
ENDBRANCH  10  11
ENDBRANCH   1  10
TORSDOF 5
BEGIN_RES LYS A 135
REMARK  4 active torsions:
REMARK  status: ('A' for Active; 'I' for Inactive)
REMARK    1  A    between atoms: CA   and  CB  
REMARK    2  A    between atoms: CB   and  CG  
REMARK    3  A    between atoms: CG   and  CD  
REMARK    4  A    between atoms: CD   and  CE  
ROOT
ATOM      1  CA  LYS A 135      33.193  34.663   9.290  1.00 25.02     0.186 C 
ENDROOT
BRANCH   1   2
ATOM      2  CB  LYS A 135      32.060  35.360  10.034  1.00 26.63     0.034 C 
BRANCH   2   3
ATOM      3  CG  LYS A 135      30.700  34.782   9.739  1.00 29.45     0.005 C 
BRANCH   3   4
ATOM      4  CD  LYS A 135      30.519  34.571   8.244  1.00 32.00     0.041 C 
BRANCH   4   5
ATOM      5  CE  LYS A 135      29.105  34.922   7.824  1.00 34.25     0.338 C 
ATOM      6  NZ  LYS A 135      28.222  35.101   9.009  1.00 35.99     0.618 N 
ENDBRANCH   4   5
ENDBRANCH   3   4
ENDBRANCH   2   3
ENDBRANCH   1   2
END_RES LYS A 135
BEGIN_RES TYR A 136
REMARK  2 active torsions:
REMARK  status: ('A' for Active; 'I' for Inactive)
REMARK    5  A    between atoms: CA   and  CB  
REMARK    6  A    between atoms: CB   and  CG  
ROOT
ATOM      7  CA  TYR A 136      36.583  36.399   8.994  1.00 26.14     0.191 C 
ENDROOT
BRANCH   7   8
ATOM      8  CB  TYR A 136      37.367  36.835  10.240  1.00 28.16     0.060 C 
BRANCH   8   9
ATOM      9  CG  TYR A 136      37.162  38.292  10.574  1.00 31.88    -0.020 A 
ATOM     10  CD2 TYR A 136      37.317  38.764  11.879  1.00 32.67    -0.002 A 
ATOM     11  CE2 TYR A 136      37.123  40.119  12.179  1.00 33.89     0.027 A 
ATOM     12  CZ  TYR A 136      36.771  41.011  11.163  1.00 34.34     0.131 A 
ATOM     13  OH  TYR A 136      36.581  42.358  11.435  1.00 35.14    -0.190 OA
ATOM     14  CE1 TYR A 136      36.612  40.560   9.861  1.00 35.01     0.027 A 
ATOM     15  CD1 TYR A 136      36.802  39.206   9.575  1.00 33.57    -0.002 A 
ENDBRANCH   8   9
ENDBRANCH   7   8
END_RES TYR A 136
BEGIN_RES ASN A 133
REMARK  2 active torsions:
REMARK  status: ('A' for Active; 'I' for Inactive)
REMARK    7  A    between atoms: CA   and  CB  
REMARK    8  A    between atoms: CB   and  CG  
ROOT
ATOM     16  CA  ASN A 133      31.225  30.257  11.749  1.00 18.15     0.196 C 
ENDROOT
BRANCH  16  17
ATOM     17  CB  ASN A 133      30.092  31.240  11.460  1.00 18.27     0.126 C 
BRANCH  17  18
ATOM     18  CG  ASN A 133      28.756  30.578  11.320  1.00 18.94     0.276 C 
ATOM     19  OD1 ASN A 133      28.596  29.615  10.569  1.00 18.09    -0.269 OA
ATOM     20  ND2 ASN A 133      27.770  31.097  12.051  1.00 18.93    -0.107 N 
ENDBRANCH  17  18
ENDBRANCH  16  17
END_RES ASN A 133
