REMARK VINA RESULT:    -4.003      2.507      3.499
REMARK INTER + INTRA:          -7.497
REMARK INTER:                  -4.593
REMARK INTRA:                  -2.903
REMARK UNBOUND:                -3.260
REMARK SMILES Cc1cn(-c2ccccc2Br)nn1
REMARK SMILES IDX 5 1 6 2 7 3 8 4 9 5 10 6 11 7 4 8 1 9 2 10 3 11 13 12 12 13
REMARK H PARENT
REMARK Flexibility Score: inf
ROOT
ATOM      1  C   UNL     1      32.058  33.902  15.525  1.00  0.00     0.081 A 
ATOM      2  C   UNL     1      31.486  32.696  15.179  1.00  0.00     0.029 A 
ATOM      3  C   UNL     1      30.799  31.967  16.127  1.00  0.00     0.002 A 
ATOM      4  C   UNL     1      30.686  32.447  17.416  1.00  0.00     0.001 A 
ATOM      5  C   UNL     1      31.264  33.652  17.738  1.00  0.00     0.018 A 
ATOM      6  C   UNL     1      31.959  34.408  16.814  1.00  0.00     0.043 A 
ATOM      7  Br  UNL     1      32.752  36.080  17.291  1.00  0.00    -0.048 Br
ENDROOT
BRANCH   1   8
ATOM      8  N   UNL     1      32.754  34.621  14.528  1.00  0.00    -0.219 N 
ATOM      9  C   UNL     1      32.790  37.088  11.852  1.00  0.00     0.070 C 
ATOM     10  C   UNL     1      33.076  36.056  12.876  1.00  0.00     0.080 A 
ATOM     11  C   UNL     1      32.148  35.541  13.726  1.00  0.00     0.140 A 
ATOM     12  N   UNL     1      34.236  35.451  13.161  1.00  0.00    -0.135 NA
ATOM     13  N   UNL     1      34.012  34.593  14.159  1.00  0.00    -0.062 NA
ENDBRANCH   1   8
TORSDOF 1
BEGIN_RES LYS A 135
REMARK  4 active torsions:
REMARK  status: ('A' for Active; 'I' for Inactive)
REMARK    1  A    between atoms: CA   and  CB  
REMARK    2  A    between atoms: CB   and  CG  
REMARK    3  A    between atoms: CG   and  CD  
REMARK    4  A    between atoms: CD   and  CE  
ROOT
ATOM      1  CA  LYS A 135      33.193  34.663   9.290  1.00 25.02     0.186 C 
ENDROOT
BRANCH   1   2
ATOM      2  CB  LYS A 135      32.060  35.360  10.034  1.00 26.63     0.034 C 
BRANCH   2   3
ATOM      3  CG  LYS A 135      30.698  34.795   9.723  1.00 29.45     0.005 C 
BRANCH   3   4
ATOM      4  CD  LYS A 135      30.565  34.502   8.237  1.00 32.00     0.041 C 
BRANCH   4   5
ATOM      5  CE  LYS A 135      29.293  35.117   7.685  1.00 34.25     0.338 C 
ATOM      6  NZ  LYS A 135      28.699  36.080   8.653  1.00 35.99     0.618 N 
ENDBRANCH   4   5
ENDBRANCH   3   4
ENDBRANCH   2   3
ENDBRANCH   1   2
END_RES LYS A 135
BEGIN_RES TYR A 136
REMARK  2 active torsions:
REMARK  status: ('A' for Active; 'I' for Inactive)
REMARK    5  A    between atoms: CA   and  CB  
REMARK    6  A    between atoms: CB   and  CG  
ROOT
ATOM      7  CA  TYR A 136      36.583  36.399   8.994  1.00 26.14     0.191 C 
ENDROOT
BRANCH   7   8
ATOM      8  CB  TYR A 136      37.367  36.835  10.240  1.00 28.16     0.060 C 
BRANCH   8   9
ATOM      9  CG  TYR A 136      36.678  37.940  11.002  1.00 31.88    -0.020 A 
ATOM     10  CD2 TYR A 136      36.017  38.975  10.336  1.00 32.67    -0.002 A 
ATOM     11  CE2 TYR A 136      35.382  39.998  11.053  1.00 33.89     0.027 A 
ATOM     12  CZ  TYR A 136      35.407  39.985  12.450  1.00 34.34     0.131 A 
ATOM     13  OH  TYR A 136      34.778  40.983  13.181  1.00 35.14    -0.190 OA
ATOM     14  CE1 TYR A 136      36.059  38.965  13.128  1.00 35.01     0.027 A 
ATOM     15  CD1 TYR A 136      36.694  37.955  12.403  1.00 33.57    -0.002 A 
ENDBRANCH   8   9
ENDBRANCH   7   8
END_RES TYR A 136
BEGIN_RES ASN A 133
REMARK  2 active torsions:
REMARK  status: ('A' for Active; 'I' for Inactive)
REMARK    7  A    between atoms: CA   and  CB  
REMARK    8  A    between atoms: CB   and  CG  
ROOT
ATOM     16  CA  ASN A 133      31.225  30.257  11.749  1.00 18.15     0.196 C 
ENDROOT
BRANCH  16  17
ATOM     17  CB  ASN A 133      30.092  31.240  11.460  1.00 18.27     0.126 C 
BRANCH  17  18
ATOM     18  CG  ASN A 133      28.751  30.582  11.354  1.00 18.94     0.276 C 
ATOM     19  OD1 ASN A 133      28.576  29.603  10.627  1.00 18.09    -0.269 OA
ATOM     20  ND2 ASN A 133      27.777  31.123  12.086  1.00 18.93    -0.107 N 
ENDBRANCH  17  18
ENDBRANCH  16  17
END_RES ASN A 133
