REMARK VINA RESULT:    -7.569      0.000      0.000
REMARK INTER + INTRA:         -10.287
REMARK INTER:                  -7.025
REMARK INTRA:                  -3.262
REMARK UNBOUND:                -1.391
REMARK SMILES Cc1cn(C(c2ccccc2)c2ccccc2)nn1
REMARK SMILES IDX 5 1 4 2 1 3 2 4 3 5 19 6 18 7 6 8 7 9 11 10 8 11 10 12 9 13
REMARK SMILES IDX 12 14 13 15 17 16 14 17 16 18 15 19
REMARK H PARENT
REMARK Flexibility Score: inf
ROOT
ATOM      1  C   UNL     1      33.255  35.871  14.311  1.00  0.00     0.169 C 
ENDROOT
BRANCH   1   2
ATOM      2  N   UNL     1      34.589  35.337  14.044  1.00  0.00    -0.240 N 
ATOM      3  C   UNL     1      37.170  33.416  12.311  1.00  0.00     0.070 C 
ATOM      4  C   UNL     1      36.315  34.252  13.160  1.00  0.00     0.080 A 
ATOM      5  C   UNL     1      34.955  34.516  13.044  1.00  0.00     0.135 A 
ATOM      6  N   UNL     1      36.712  34.940  14.247  1.00  0.00    -0.136 NA
ATOM      7  N   UNL     1      35.675  35.574  14.755  1.00  0.00    -0.066 NA
ENDBRANCH   1   2
BRANCH   1   8
ATOM      8  C   UNL     1      32.221  34.821  14.432  1.00  0.00    -0.019 A 
ATOM      9  C   UNL     1      32.257  33.827  15.372  1.00  0.00     0.006 A 
ATOM     10  C   UNL     1      31.132  34.813  13.563  1.00  0.00     0.006 A 
ATOM     11  C   UNL     1      31.238  32.870  15.430  1.00  0.00     0.000 A 
ATOM     12  C   UNL     1      30.133  33.875  13.618  1.00  0.00     0.000 A 
ATOM     13  C   UNL     1      30.177  32.885  14.560  1.00  0.00     0.000 A 
ENDBRANCH   1   8
BRANCH   1  14
ATOM     14  C   UNL     1      32.911  36.965  13.400  1.00  0.00    -0.019 A 
ATOM     15  C   UNL     1      33.037  36.909  12.030  1.00  0.00     0.006 A 
ATOM     16  C   UNL     1      32.407  38.148  13.909  1.00  0.00     0.006 A 
ATOM     17  C   UNL     1      32.682  37.962  11.243  1.00  0.00     0.000 A 
ATOM     18  C   UNL     1      32.040  39.227  13.136  1.00  0.00     0.000 A 
ATOM     19  C   UNL     1      32.185  39.122  11.786  1.00  0.00     0.000 A 
ENDBRANCH   1  14
TORSDOF 3
BEGIN_RES LYS A 135
REMARK  4 active torsions:
REMARK  status: ('A' for Active; 'I' for Inactive)
REMARK    1  A    between atoms: CA   and  CB  
REMARK    2  A    between atoms: CB   and  CG  
REMARK    3  A    between atoms: CG   and  CD  
REMARK    4  A    between atoms: CD   and  CE  
ROOT
ATOM      1  CA  LYS A 135      33.193  34.663   9.290  1.00 25.02     0.186 C 
ENDROOT
BRANCH   1   2
ATOM      2  CB  LYS A 135      32.060  35.360  10.034  1.00 26.63     0.034 C 
BRANCH   2   3
ATOM      3  CG  LYS A 135      30.711  34.730   9.804  1.00 29.45     0.005 C 
BRANCH   3   4
ATOM      4  CD  LYS A 135      30.465  34.515   8.318  1.00 32.00     0.041 C 
BRANCH   4   5
ATOM      5  CE  LYS A 135      29.022  34.821   7.967  1.00 34.25     0.338 C 
ATOM      6  NZ  LYS A 135      28.086  34.148   8.910  1.00 35.99     0.618 N 
ENDBRANCH   4   5
ENDBRANCH   3   4
ENDBRANCH   2   3
ENDBRANCH   1   2
END_RES LYS A 135
BEGIN_RES TYR A 136
REMARK  2 active torsions:
REMARK  status: ('A' for Active; 'I' for Inactive)
REMARK    5  A    between atoms: CA   and  CB  
REMARK    6  A    between atoms: CB   and  CG  
ROOT
ATOM      7  CA  TYR A 136      36.583  36.399   8.994  1.00 26.14     0.191 C 
ENDROOT
BRANCH   7   8
ATOM      8  CB  TYR A 136      37.367  36.835  10.240  1.00 28.16     0.060 C 
BRANCH   8   9
ATOM      9  CG  TYR A 136      36.732  38.010  10.943  1.00 31.88    -0.020 A 
ATOM     10  CD2 TYR A 136      36.259  39.111  10.227  1.00 32.67    -0.002 A 
ATOM     11  CE2 TYR A 136      35.673  40.198  10.890  1.00 33.89     0.027 A 
ATOM     12  CZ  TYR A 136      35.559  40.182  12.283  1.00 34.34     0.131 A 
ATOM     13  OH  TYR A 136      34.976  41.244  12.960  1.00 35.14    -0.190 OA
ATOM     14  CE1 TYR A 136      36.025  39.097  13.010  1.00 35.01     0.027 A 
ATOM     15  CD1 TYR A 136      36.613  38.023  12.339  1.00 33.57    -0.002 A 
ENDBRANCH   8   9
ENDBRANCH   7   8
END_RES TYR A 136
BEGIN_RES ASN A 133
REMARK  2 active torsions:
REMARK  status: ('A' for Active; 'I' for Inactive)
REMARK    7  A    between atoms: CA   and  CB  
REMARK    8  A    between atoms: CB   and  CG  
ROOT
ATOM     16  CA  ASN A 133      31.225  30.257  11.749  1.00 18.15     0.196 C 
ENDROOT
BRANCH  16  17
ATOM     17  CB  ASN A 133      30.092  31.240  11.460  1.00 18.27     0.126 C 
BRANCH  17  18
ATOM     18  CG  ASN A 133      28.748  30.585  11.373  1.00 18.94     0.276 C 
ATOM     19  OD1 ASN A 133      28.563  29.602  10.654  1.00 18.09    -0.269 OA
ATOM     20  ND2 ASN A 133      27.785  31.132  12.114  1.00 18.93    -0.107 N 
ENDBRANCH  17  18
ENDBRANCH  16  17
END_RES ASN A 133
