REMARK VINA RESULT:    -4.658      0.000      0.000
REMARK INTER + INTRA:          -8.733
REMARK INTER:                  -5.599
REMARK INTRA:                  -3.134
REMARK UNBOUND:                -3.259
REMARK SMILES Cc1cn(Cc2cccc(C#N)c2)nn1
REMARK SMILES IDX 6 1 7 2 8 3 9 4 10 5 13 6 5 7 4 8 1 9 2 10 3 11 15 12 14 13
REMARK SMILES IDX 11 14 12 15
REMARK H PARENT
REMARK Flexibility Score: inf
ROOT
ATOM      1  C   UNL     1      33.948  35.640  14.206  1.00  0.00    -0.025 A 
ATOM      2  C   UNL     1      34.684  36.155  15.245  1.00  0.00     0.006 A 
ATOM      3  C   UNL     1      36.034  35.911  15.407  1.00  0.00     0.002 A 
ATOM      4  C   UNL     1      36.662  35.110  14.474  1.00  0.00     0.019 A 
ATOM      5  C   UNL     1      35.964  34.569  13.414  1.00  0.00     0.052 A 
ATOM      6  C   UNL     1      34.601  34.842  13.288  1.00  0.00     0.025 A 
ENDROOT
BRANCH   1   7
ATOM      7  C   UNL     1      32.507  35.899  14.031  1.00  0.00     0.181 C 
BRANCH   7   8
ATOM      8  N   UNL     1      31.689  34.748  14.244  1.00  0.00    -0.248 N 
ATOM      9  C   UNL     1      30.757  31.762  16.116  1.00  0.00     0.070 C 
ATOM     10  C   UNL     1      30.913  32.914  15.169  1.00  0.00     0.080 A 
ATOM     11  C   UNL     1      31.860  33.892  15.267  1.00  0.00     0.134 A 
ATOM     12  N   UNL     1      30.174  33.190  14.080  1.00  0.00    -0.136 NA
ATOM     13  N   UNL     1      30.654  34.292  13.540  1.00  0.00    -0.067 NA
ENDBRANCH   7   8
ENDBRANCH   1   7
BRANCH   5  14
ATOM     14  C   UNL     1      36.679  33.746  12.482  1.00  0.00     0.099 C 
ATOM     15  N   UNL     1      37.257  33.100  11.721  1.00  0.00    -0.192 NA
ENDBRANCH   5  14
TORSDOF 3
BEGIN_RES LYS A 135
REMARK  4 active torsions:
REMARK  status: ('A' for Active; 'I' for Inactive)
REMARK    1  A    between atoms: CA   and  CB  
REMARK    2  A    between atoms: CB   and  CG  
REMARK    3  A    between atoms: CG   and  CD  
REMARK    4  A    between atoms: CD   and  CE  
ROOT
ATOM      1  CA  LYS A 135      33.193  34.663   9.290  1.00 25.02     0.186 C 
ENDROOT
BRANCH   1   2
ATOM      2  CB  LYS A 135      32.060  35.360  10.034  1.00 26.63     0.034 C 
BRANCH   2   3
ATOM      3  CG  LYS A 135      30.706  34.749   9.779  1.00 29.45     0.005 C 
BRANCH   3   4
ATOM      4  CD  LYS A 135      30.456  34.603   8.286  1.00 32.00     0.041 C 
BRANCH   4   5
ATOM      5  CE  LYS A 135      29.014  34.936   7.952  1.00 34.25     0.338 C 
ATOM      6  NZ  LYS A 135      28.907  35.569   6.609  1.00 35.99     0.618 N 
ENDBRANCH   4   5
ENDBRANCH   3   4
ENDBRANCH   2   3
ENDBRANCH   1   2
END_RES LYS A 135
BEGIN_RES TYR A 136
REMARK  2 active torsions:
REMARK  status: ('A' for Active; 'I' for Inactive)
REMARK    5  A    between atoms: CA   and  CB  
REMARK    6  A    between atoms: CB   and  CG  
ROOT
ATOM      7  CA  TYR A 136      36.583  36.399   8.994  1.00 26.14     0.191 C 
ENDROOT
BRANCH   7   8
ATOM      8  CB  TYR A 136      37.367  36.835  10.240  1.00 28.16     0.060 C 
BRANCH   8   9
ATOM      9  CG  TYR A 136      36.722  37.997  10.954  1.00 31.88    -0.020 A 
ATOM     10  CD2 TYR A 136      36.668  38.049  12.349  1.00 32.67    -0.002 A 
ATOM     11  CE2 TYR A 136      36.064  39.132  13.003  1.00 33.89     0.027 A 
ATOM     12  CZ  TYR A 136      35.510  40.173  12.254  1.00 34.34     0.131 A 
ATOM     13  OH  TYR A 136      34.914  41.259  12.880  1.00 35.14    -0.190 OA
ATOM     14  CE1 TYR A 136      35.554  40.137  10.868  1.00 35.01     0.027 A 
ATOM     15  CD1 TYR A 136      36.152  39.050  10.228  1.00 33.57    -0.002 A 
ENDBRANCH   8   9
ENDBRANCH   7   8
END_RES TYR A 136
BEGIN_RES ASN A 133
REMARK  2 active torsions:
REMARK  status: ('A' for Active; 'I' for Inactive)
REMARK    7  A    between atoms: CA   and  CB  
REMARK    8  A    between atoms: CB   and  CG  
ROOT
ATOM     16  CA  ASN A 133      31.225  30.257  11.749  1.00 18.15     0.196 C 
ENDROOT
BRANCH  16  17
ATOM     17  CB  ASN A 133      30.092  31.240  11.460  1.00 18.27     0.126 C 
BRANCH  17  18
ATOM     18  CG  ASN A 133      28.749  30.584  11.366  1.00 18.94     0.276 C 
ATOM     19  OD1 ASN A 133      28.563  29.614  10.629  1.00 18.09    -0.269 OA
ATOM     20  ND2 ASN A 133      27.787  31.115  12.119  1.00 18.93    -0.107 N 
ENDBRANCH  17  18
ENDBRANCH  16  17
END_RES ASN A 133
