REMARK VINA RESULT:    -4.667      4.589      6.758
REMARK INTER + INTRA:         -10.252
REMARK INTER:                  -6.260
REMARK INTRA:                  -3.991
REMARK UNBOUND:                -3.812
REMARK SMILES Cc1cn(C[C@@H](C(=O)O)C(c2ccccc2)c2ccccc2)nn1
REMARK SMILES IDX 6 1 5 2 4 3 1 4 2 5 3 6 24 7 23 8 7 9 8 10 9 11 10 13 11 14
REMARK SMILES IDX 12 15 16 16 13 17 15 18 14 19 17 20 18 21 22 22 19 23 21 24
REMARK SMILES IDX 20 25
REMARK H PARENT 9 12
REMARK Flexibility Score: inf
ROOT
ATOM      1  C   UNL     1      28.653  31.042  19.301  1.00  0.00     0.132 C 
ENDROOT
BRANCH   1   2
ATOM      2  C   UNL     1      28.267  30.425  20.605  1.00  0.00     0.162 C 
BRANCH   2   3
ATOM      3  N   UNL     1      27.665  29.126  20.418  1.00  0.00    -0.251 N 
ATOM      4  C   UNL     1      24.852  26.799  20.250  1.00  0.00     0.070 C 
ATOM      5  C   UNL     1      26.122  27.587  20.272  1.00  0.00     0.080 A 
ATOM      6  C   UNL     1      26.326  28.904  20.520  1.00  0.00     0.134 A 
ATOM      7  N   UNL     1      27.326  27.037  20.026  1.00  0.00    -0.136 NA
ATOM      8  N   UNL     1      28.235  27.971  20.118  1.00  0.00    -0.067 NA
ENDBRANCH   2   3
ENDBRANCH   1   2
BRANCH   1   9
ATOM      9  C   UNL     1      27.628  31.972  18.825  1.00  0.00     0.309 C 
ATOM     10  O   UNL     1      26.932  31.653  17.821  1.00  0.00    -0.252 OA
BRANCH   9  11
ATOM     11  O   UNL     1      27.399  33.206  19.455  1.00  0.00    -0.481 OA
ATOM     12  H   UNL     1      27.512  34.049  18.873  1.00  0.00     0.296 HD
ENDBRANCH   9  11
ENDBRANCH   1   9
BRANCH   1  13
ATOM     13  C   UNL     1      29.951  31.824  19.485  1.00  0.00     0.065 C 
BRANCH  13  14
ATOM     14  C   UNL     1      30.971  31.051  20.245  1.00  0.00    -0.040 A 
ATOM     15  C   UNL     1      31.255  29.725  20.026  1.00  0.00     0.004 A 
ATOM     16  C   UNL     1      31.666  31.737  21.236  1.00  0.00     0.004 A 
ATOM     17  C   UNL     1      32.226  29.101  20.793  1.00  0.00     0.000 A 
ATOM     18  C   UNL     1      32.631  31.086  21.987  1.00  0.00     0.000 A 
ATOM     19  C   UNL     1      32.913  29.771  21.769  1.00  0.00     0.000 A 
ENDBRANCH  13  14
BRANCH  13  20
ATOM     20  C   UNL     1      30.479  32.227  18.159  1.00  0.00    -0.040 A 
ATOM     21  C   UNL     1      31.097  33.450  17.991  1.00  0.00     0.004 A 
ATOM     22  C   UNL     1      30.383  31.398  17.063  1.00  0.00     0.004 A 
ATOM     23  C   UNL     1      31.620  33.887  16.799  1.00  0.00     0.000 A 
ATOM     24  C   UNL     1      30.903  31.813  15.844  1.00  0.00     0.000 A 
ATOM     25  C   UNL     1      31.505  33.023  15.717  1.00  0.00     0.000 A 
ENDBRANCH  13  20
ENDBRANCH   1  13
TORSDOF 7
BEGIN_RES LYS A 135
REMARK  4 active torsions:
REMARK  status: ('A' for Active; 'I' for Inactive)
REMARK    1  A    between atoms: CA   and  CB  
REMARK    2  A    between atoms: CB   and  CG  
REMARK    3  A    between atoms: CG   and  CD  
REMARK    4  A    between atoms: CD   and  CE  
ROOT
ATOM      1  CA  LYS A 135      33.193  34.663   9.290  1.00 25.02     0.186 C 
ENDROOT
BRANCH   1   2
ATOM      2  CB  LYS A 135      32.060  35.360  10.034  1.00 26.63     0.034 C 
BRANCH   2   3
ATOM      3  CG  LYS A 135      30.860  35.649   9.170  1.00 29.45     0.005 C 
BRANCH   3   4
ATOM      4  CD  LYS A 135      30.360  34.377   8.502  1.00 32.00     0.041 C 
BRANCH   4   5
ATOM      5  CE  LYS A 135      28.846  34.384   8.409  1.00 34.25     0.338 C 
ATOM      6  NZ  LYS A 135      28.231  33.799   9.632  1.00 35.99     0.618 N 
ENDBRANCH   4   5
ENDBRANCH   3   4
ENDBRANCH   2   3
ENDBRANCH   1   2
END_RES LYS A 135
BEGIN_RES TYR A 136
REMARK  2 active torsions:
REMARK  status: ('A' for Active; 'I' for Inactive)
REMARK    5  A    between atoms: CA   and  CB  
REMARK    6  A    between atoms: CB   and  CG  
ROOT
ATOM      7  CA  TYR A 136      36.583  36.399   8.994  1.00 26.14     0.191 C 
ENDROOT
BRANCH   7   8
ATOM      8  CB  TYR A 136      37.367  36.835  10.240  1.00 28.16     0.060 C 
BRANCH   8   9
ATOM      9  CG  TYR A 136      37.259  38.317  10.505  1.00 31.88    -0.020 A 
ATOM     10  CD2 TYR A 136      36.031  38.909  10.806  1.00 32.67    -0.002 A 
ATOM     11  CE2 TYR A 136      35.941  40.287  11.049  1.00 33.89     0.027 A 
ATOM     12  CZ  TYR A 136      37.090  41.079  10.988  1.00 34.34     0.131 A 
ATOM     13  OH  TYR A 136      37.026  42.444  11.232  1.00 35.14    -0.190 OA
ATOM     14  CE1 TYR A 136      38.318  40.506  10.689  1.00 35.01     0.027 A 
ATOM     15  CD1 TYR A 136      38.394  39.135  10.443  1.00 33.57    -0.002 A 
ENDBRANCH   8   9
ENDBRANCH   7   8
END_RES TYR A 136
BEGIN_RES ASN A 133
REMARK  2 active torsions:
REMARK  status: ('A' for Active; 'I' for Inactive)
REMARK    7  A    between atoms: CA   and  CB  
REMARK    8  A    between atoms: CB   and  CG  
ROOT
ATOM     16  CA  ASN A 133      31.225  30.257  11.749  1.00 18.15     0.196 C 
ENDROOT
BRANCH  16  17
ATOM     17  CB  ASN A 133      30.092  31.240  11.460  1.00 18.27     0.126 C 
BRANCH  17  18
ATOM     18  CG  ASN A 133      28.748  30.585  11.373  1.00 18.94     0.276 C 
ATOM     19  OD1 ASN A 133      28.559  29.610  10.643  1.00 18.09    -0.269 OA
ATOM     20  ND2 ASN A 133      27.788  31.122  12.125  1.00 18.93    -0.107 N 
ENDBRANCH  17  18
ENDBRANCH  16  17
END_RES ASN A 133
