REMARK VINA RESULT:    -3.058      2.235      4.011
REMARK INTER + INTRA:          -7.157
REMARK INTER:                  -3.713
REMARK INTRA:                  -3.444
REMARK UNBOUND:                -3.384
REMARK SMILES COCC(C(N)=O)n1cc(C)nn1
REMARK SMILES IDX 3 1 4 2 8 3 11 4 10 5 9 6 12 7 13 8 5 9 7 10 6 11 2 14 1 15
REMARK H PARENT 6 12 6 13
REMARK Flexibility Score: inf
ROOT
ATOM      1  C   UNL     1      33.591  39.821   4.896  1.00  0.00     0.197 C 
ENDROOT
BRANCH   1   2
ATOM      2  C   UNL     1      34.658  38.974   5.580  1.00  0.00     0.223 C 
BRANCH   2   3
ATOM      3  N   UNL     1      35.605  38.453   4.624  1.00  0.00    -0.237 N 
ATOM      4  C   UNL     1      37.153  37.683   1.416  1.00  0.00     0.070 C 
ATOM      5  C   UNL     1      36.733  37.864   2.841  1.00  0.00     0.080 A 
ATOM      6  C   UNL     1      35.611  38.516   3.284  1.00  0.00     0.135 A 
ATOM      7  N   UNL     1      37.370  37.427   3.947  1.00  0.00    -0.136 NA
ATOM      8  N   UNL     1      36.695  37.780   5.004  1.00  0.00    -0.066 NA
ENDBRANCH   2   3
BRANCH   2   9
ATOM      9  C   UNL     1      35.285  39.783   6.628  1.00  0.00     0.244 C 
ATOM     10  O   UNL     1      36.102  40.682   6.304  1.00  0.00    -0.273 OA
ATOM     11  N   UNL     1      34.993  39.579   7.999  1.00  0.00    -0.368 N 
ATOM     12  H   UNL     1      34.132  39.097   8.347  1.00  0.00     0.159 HD
ATOM     13  H   UNL     1      35.643  39.909   8.769  1.00  0.00     0.159 HD
ENDBRANCH   2   9
ENDBRANCH   1   2
BRANCH   1  14
ATOM     14  O   UNL     1      32.693  40.248   5.869  1.00  0.00    -0.382 OA
ATOM     15  C   UNL     1      31.400  40.270   5.322  1.00  0.00     0.195 C 
ENDBRANCH   1  14
TORSDOF 4
BEGIN_RES LYS A 135
REMARK  4 active torsions:
REMARK  status: ('A' for Active; 'I' for Inactive)
REMARK    1  A    between atoms: CA   and  CB  
REMARK    2  A    between atoms: CB   and  CG  
REMARK    3  A    between atoms: CG   and  CD  
REMARK    4  A    between atoms: CD   and  CE  
ROOT
ATOM      1  CA  LYS A 135      33.193  34.663   9.290  1.00 25.02     0.186 C 
ENDROOT
BRANCH   1   2
ATOM      2  CB  LYS A 135      32.060  35.360  10.034  1.00 26.63     0.034 C 
BRANCH   2   3
ATOM      3  CG  LYS A 135      30.732  34.659   9.903  1.00 29.45     0.005 C 
BRANCH   3   4
ATOM      4  CD  LYS A 135      30.339  34.525   8.440  1.00 32.00     0.041 C 
BRANCH   4   5
ATOM      5  CE  LYS A 135      28.829  34.507   8.294  1.00 34.25     0.338 C 
ATOM      6  NZ  LYS A 135      28.187  33.818   9.448  1.00 35.99     0.618 N 
ENDBRANCH   4   5
ENDBRANCH   3   4
ENDBRANCH   2   3
ENDBRANCH   1   2
END_RES LYS A 135
BEGIN_RES TYR A 136
REMARK  2 active torsions:
REMARK  status: ('A' for Active; 'I' for Inactive)
REMARK    5  A    between atoms: CA   and  CB  
REMARK    6  A    between atoms: CB   and  CG  
ROOT
ATOM      7  CA  TYR A 136      36.583  36.399   8.994  1.00 26.14     0.191 C 
ENDROOT
BRANCH   7   8
ATOM      8  CB  TYR A 136      37.367  36.835  10.240  1.00 28.16     0.060 C 
BRANCH   8   9
ATOM      9  CG  TYR A 136      37.219  38.308  10.533  1.00 31.88    -0.020 A 
ATOM     10  CD2 TYR A 136      38.087  39.247   9.973  1.00 32.67    -0.002 A 
ATOM     11  CE2 TYR A 136      37.942  40.613  10.252  1.00 33.89     0.027 A 
ATOM     12  CZ  TYR A 136      36.919  41.042  11.101  1.00 34.34     0.131 A 
ATOM     13  OH  TYR A 136      36.752  42.390  11.386  1.00 35.14    -0.190 OA
ATOM     14  CE1 TYR A 136      36.048  40.123  11.667  1.00 35.01     0.027 A 
ATOM     15  CD1 TYR A 136      36.206  38.765  11.386  1.00 33.57    -0.002 A 
ENDBRANCH   8   9
ENDBRANCH   7   8
END_RES TYR A 136
BEGIN_RES ASN A 133
REMARK  2 active torsions:
REMARK  status: ('A' for Active; 'I' for Inactive)
REMARK    7  A    between atoms: CA   and  CB  
REMARK    8  A    between atoms: CB   and  CG  
ROOT
ATOM     16  CA  ASN A 133      31.225  30.257  11.749  1.00 18.15     0.196 C 
ENDROOT
BRANCH  16  17
ATOM     17  CB  ASN A 133      30.092  31.240  11.460  1.00 18.27     0.126 C 
BRANCH  17  18
ATOM     18  CG  ASN A 133      28.750  30.583  11.361  1.00 18.94     0.276 C 
ATOM     19  OD1 ASN A 133      28.575  29.591  10.651  1.00 18.09    -0.269 OA
ATOM     20  ND2 ASN A 133      27.775  31.139  12.081  1.00 18.93    -0.107 N 
ENDBRANCH  17  18
ENDBRANCH  16  17
END_RES ASN A 133
