REMARK VINA RESULT:    -4.485      2.896      4.798
REMARK INTER + INTRA:          -8.279
REMARK INTER:                  -5.126
REMARK INTRA:                  -3.154
REMARK UNBOUND:                -3.139
REMARK SMILES Cc1cn(-c2cccc(S(N)(=O)=O)c2)nn1
REMARK SMILES IDX 5 1 14 2 9 3 8 4 7 5 6 6 4 7 1 8 2 9 3 10 16 11 15 12 10 13
REMARK SMILES IDX 12 14 13 15 11 16
REMARK H PARENT 11 17 11 18
REMARK Flexibility Score: inf
ROOT
ATOM      1  C   UNL     1      38.138  34.299  14.382  1.00  0.00     0.068 A 
ATOM      2  C   UNL     1      36.897  34.902  14.472  1.00  0.00     0.050 A 
ATOM      3  C   UNL     1      35.920  34.708  13.518  1.00  0.00     0.084 A 
ATOM      4  C   UNL     1      36.155  33.891  12.423  1.00  0.00     0.022 A 
ATOM      5  C   UNL     1      37.387  33.280  12.311  1.00  0.00     0.004 A 
ATOM      6  C   UNL     1      38.351  33.492  13.285  1.00  0.00     0.028 A 
ENDROOT
BRANCH   1   7
ATOM      7  N   UNL     1      39.129  34.517  15.382  1.00  0.00    -0.220 N 
ATOM      8  C   UNL     1      40.454  34.591  18.815  1.00  0.00     0.070 C 
ATOM      9  C   UNL     1      40.172  34.651  17.353  1.00  0.00     0.080 A 
ATOM     10  C   UNL     1      38.989  34.334  16.711  1.00  0.00     0.140 A 
ATOM     11  N   UNL     1      41.013  35.025  16.377  1.00  0.00    -0.135 NA
ATOM     12  N   UNL     1      40.373  34.937  15.225  1.00  0.00    -0.062 NA
ENDBRANCH   1   7
BRANCH   3  13
ATOM     13  S   UNL     1      34.388  35.519  13.733  1.00  0.00     0.238 S 
ATOM     14  O   UNL     1      33.956  36.221  12.480  1.00  0.00    -0.207 OA
ATOM     15  O   UNL     1      34.545  36.525  14.836  1.00  0.00    -0.207 OA
BRANCH  13  16
ATOM     16  N   UNL     1      33.197  34.376  14.216  1.00  0.00    -0.225 NA
ATOM     17  H   UNL     1      33.424  33.401  13.887  1.00  0.00     0.137 HD
ATOM     18  H   UNL     1      32.281  34.657  13.795  1.00  0.00     0.137 HD
ENDBRANCH  13  16
ENDBRANCH   3  13
TORSDOF 3
BEGIN_RES LYS A 135
REMARK  4 active torsions:
REMARK  status: ('A' for Active; 'I' for Inactive)
REMARK    1  A    between atoms: CA   and  CB  
REMARK    2  A    between atoms: CB   and  CG  
REMARK    3  A    between atoms: CG   and  CD  
REMARK    4  A    between atoms: CD   and  CE  
ROOT
ATOM      1  CA  LYS A 135      33.193  34.663   9.290  1.00 25.02     0.186 C 
ENDROOT
BRANCH   1   2
ATOM      2  CB  LYS A 135      32.060  35.360  10.034  1.00 26.63     0.034 C 
BRANCH   2   3
ATOM      3  CG  LYS A 135      30.843  35.609   9.181  1.00 29.45     0.005 C 
BRANCH   3   4
ATOM      4  CD  LYS A 135      30.208  34.294   8.755  1.00 32.00     0.041 C 
BRANCH   4   5
ATOM      5  CE  LYS A 135      28.735  34.488   8.450  1.00 34.25     0.338 C 
ATOM      6  NZ  LYS A 135      27.883  33.794   9.456  1.00 35.99     0.618 N 
ENDBRANCH   4   5
ENDBRANCH   3   4
ENDBRANCH   2   3
ENDBRANCH   1   2
END_RES LYS A 135
BEGIN_RES TYR A 136
REMARK  2 active torsions:
REMARK  status: ('A' for Active; 'I' for Inactive)
REMARK    5  A    between atoms: CA   and  CB  
REMARK    6  A    between atoms: CB   and  CG  
ROOT
ATOM      7  CA  TYR A 136      36.583  36.399   8.994  1.00 26.14     0.191 C 
ENDROOT
BRANCH   7   8
ATOM      8  CB  TYR A 136      37.367  36.835  10.240  1.00 28.16     0.060 C 
BRANCH   8   9
ATOM      9  CG  TYR A 136      36.692  37.959  10.986  1.00 31.88    -0.020 A 
ATOM     10  CD2 TYR A 136      35.871  38.876  10.325  1.00 32.67    -0.002 A 
ATOM     11  CE2 TYR A 136      35.250  39.918  11.028  1.00 33.89     0.027 A 
ATOM     12  CZ  TYR A 136      35.452  40.044  12.404  1.00 34.34     0.131 A 
ATOM     13  OH  TYR A 136      34.842  41.063  13.121  1.00 35.14    -0.190 OA
ATOM     14  CE1 TYR A 136      36.266  39.143  13.077  1.00 35.01     0.027 A 
ATOM     15  CD1 TYR A 136      36.884  38.113  12.365  1.00 33.57    -0.002 A 
ENDBRANCH   8   9
ENDBRANCH   7   8
END_RES TYR A 136
BEGIN_RES ASN A 133
REMARK  2 active torsions:
REMARK  status: ('A' for Active; 'I' for Inactive)
REMARK    7  A    between atoms: CA   and  CB  
REMARK    8  A    between atoms: CB   and  CG  
ROOT
ATOM     16  CA  ASN A 133      31.225  30.257  11.749  1.00 18.15     0.196 C 
ENDROOT
BRANCH  16  17
ATOM     17  CB  ASN A 133      30.092  31.240  11.460  1.00 18.27     0.126 C 
BRANCH  17  18
ATOM     18  CG  ASN A 133      28.757  30.578  11.314  1.00 18.94     0.276 C 
ATOM     19  OD1 ASN A 133      28.603  29.608  10.570  1.00 18.09    -0.269 OA
ATOM     20  ND2 ASN A 133      27.765  31.103  12.032  1.00 18.93    -0.107 N 
ENDBRANCH  17  18
ENDBRANCH  16  17
END_RES ASN A 133
