REMARK VINA RESULT:    -3.935      1.557      2.298
REMARK INTER + INTRA:          -7.730
REMARK INTER:                  -4.583
REMARK INTRA:                  -3.147
REMARK UNBOUND:                -3.335
REMARK SMILES Cc1cn(-c2ccccc2C(N)=O)nn1
REMARK SMILES IDX 5 1 10 2 9 3 8 4 7 5 6 6 4 7 1 8 2 9 3 10 15 11 14 12 11 13
REMARK SMILES IDX 13 14 12 15
REMARK H PARENT 12 16 12 17
REMARK Flexibility Score: inf
ROOT
ATOM      1  C   UNL     1      38.164  34.752  13.108  1.00  0.00     0.079 A 
ATOM      2  C   UNL     1      37.946  35.282  14.351  1.00  0.00     0.065 A 
ATOM      3  C   UNL     1      36.638  35.379  14.799  1.00  0.00     0.016 A 
ATOM      4  C   UNL     1      35.575  34.961  14.036  1.00  0.00     0.001 A 
ATOM      5  C   UNL     1      35.814  34.427  12.781  1.00  0.00     0.002 A 
ATOM      6  C   UNL     1      37.109  34.328  12.330  1.00  0.00     0.029 A 
ENDROOT
BRANCH   1   7
ATOM      7  N   UNL     1      39.525  34.646  12.631  1.00  0.00    -0.220 N 
ATOM      8  C   UNL     1      42.625  35.727  10.963  1.00  0.00     0.070 C 
ATOM      9  C   UNL     1      41.498  35.081  11.681  1.00  0.00     0.080 A 
ATOM     10  C   UNL     1      40.236  35.566  11.953  1.00  0.00     0.140 A 
ATOM     11  N   UNL     1      41.517  33.850  12.216  1.00  0.00    -0.135 NA
ATOM     12  N   UNL     1      40.340  33.614  12.771  1.00  0.00    -0.062 NA
ENDBRANCH   1   7
BRANCH   2  13
ATOM     13  C   UNL     1      39.073  35.724  15.157  1.00  0.00     0.250 C 
ATOM     14  O   UNL     1      39.655  34.882  15.885  1.00  0.00    -0.269 OA
ATOM     15  N   UNL     1      39.527  37.084  15.138  1.00  0.00    -0.366 N 
ATOM     16  H   UNL     1      39.426  37.657  15.980  1.00  0.00     0.159 HD
ATOM     17  H   UNL     1      39.940  37.425  14.257  1.00  0.00     0.159 HD
ENDBRANCH   2  13
TORSDOF 2
BEGIN_RES LYS A 135
REMARK  4 active torsions:
REMARK  status: ('A' for Active; 'I' for Inactive)
REMARK    1  A    between atoms: CA   and  CB  
REMARK    2  A    between atoms: CB   and  CG  
REMARK    3  A    between atoms: CG   and  CD  
REMARK    4  A    between atoms: CD   and  CE  
ROOT
ATOM      1  CA  LYS A 135      33.193  34.663   9.290  1.00 25.02     0.186 C 
ENDROOT
BRANCH   1   2
ATOM      2  CB  LYS A 135      32.060  35.360  10.034  1.00 26.63     0.034 C 
BRANCH   2   3
ATOM      3  CG  LYS A 135      30.836  35.592   9.187  1.00 29.45     0.005 C 
BRANCH   3   4
ATOM      4  CD  LYS A 135      30.241  34.269   8.730  1.00 32.00     0.041 C 
BRANCH   4   5
ATOM      5  CE  LYS A 135      28.744  34.401   8.523  1.00 34.25     0.338 C 
ATOM      6  NZ  LYS A 135      27.990  33.707   9.604  1.00 35.99     0.618 N 
ENDBRANCH   4   5
ENDBRANCH   3   4
ENDBRANCH   2   3
ENDBRANCH   1   2
END_RES LYS A 135
BEGIN_RES TYR A 136
REMARK  2 active torsions:
REMARK  status: ('A' for Active; 'I' for Inactive)
REMARK    5  A    between atoms: CA   and  CB  
REMARK    6  A    between atoms: CB   and  CG  
ROOT
ATOM      7  CA  TYR A 136      36.583  36.399   8.994  1.00 26.14     0.191 C 
ENDROOT
BRANCH   7   8
ATOM      8  CB  TYR A 136      37.367  36.835  10.240  1.00 28.16     0.060 C 
BRANCH   8   9
ATOM      9  CG  TYR A 136      36.746  38.025  10.929  1.00 31.88    -0.020 A 
ATOM     10  CD2 TYR A 136      36.800  38.166  12.318  1.00 32.67    -0.002 A 
ATOM     11  CE2 TYR A 136      36.219  39.274  12.949  1.00 33.89     0.027 A 
ATOM     12  CZ  TYR A 136      35.576  40.250  12.183  1.00 34.34     0.131 A 
ATOM     13  OH  TYR A 136      35.000  41.360  12.785  1.00 35.14    -0.190 OA
ATOM     14  CE1 TYR A 136      35.512  40.126  10.802  1.00 35.01     0.027 A 
ATOM     15  CD1 TYR A 136      36.090  39.014  10.186  1.00 33.57    -0.002 A 
ENDBRANCH   8   9
ENDBRANCH   7   8
END_RES TYR A 136
BEGIN_RES ASN A 133
REMARK  2 active torsions:
REMARK  status: ('A' for Active; 'I' for Inactive)
REMARK    7  A    between atoms: CA   and  CB  
REMARK    8  A    between atoms: CB   and  CG  
ROOT
ATOM     16  CA  ASN A 133      31.225  30.257  11.749  1.00 18.15     0.196 C 
ENDROOT
BRANCH  16  17
ATOM     17  CB  ASN A 133      30.092  31.240  11.460  1.00 18.27     0.126 C 
BRANCH  17  18
ATOM     18  CG  ASN A 133      28.750  30.583  11.360  1.00 18.94     0.276 C 
ATOM     19  OD1 ASN A 133      28.568  29.613  10.623  1.00 18.09    -0.269 OA
ATOM     20  ND2 ASN A 133      27.784  31.114  12.109  1.00 18.93    -0.107 N 
ENDBRANCH  17  18
ENDBRANCH  16  17
END_RES ASN A 133
