REMARK VINA RESULT:    -3.903      1.170      3.586
REMARK INTER + INTRA:          -7.252
REMARK INTER:                  -4.122
REMARK INTRA:                  -3.130
REMARK UNBOUND:                -3.121
REMARK SMILES Cc1cn(-c2cccnc2)nn1
REMARK SMILES IDX 1 1 2 2 3 3 4 4 11 5 12 6 5 7 6 8 10 9 7 10 9 11 8 12
REMARK H PARENT
REMARK Flexibility Score: inf
ROOT
ATOM      1  C   UNL     1      21.823  36.574  -0.870  1.00  0.00     0.070 C 
ATOM      2  C   UNL     1      22.236  35.279  -0.267  1.00  0.00     0.080 A 
ATOM      3  C   UNL     1      21.996  34.016  -0.764  1.00  0.00     0.140 A 
ATOM      4  N   UNL     1      22.526  33.092   0.063  1.00  0.00    -0.219 N 
ATOM      5  N   UNL     1      23.084  33.773   1.051  1.00  0.00    -0.062 NA
ATOM      6  N   UNL     1      22.927  35.073   0.880  1.00  0.00    -0.135 NA
ENDROOT
BRANCH   4   7
ATOM      7  C   UNL     1      22.478  31.684  -0.121  1.00  0.00     0.085 A 
ATOM      8  C   UNL     1      23.023  30.812   0.794  1.00  0.00     0.031 A 
ATOM      9  C   UNL     1      21.867  31.175  -1.247  1.00  0.00     0.139 A 
ATOM     10  C   UNL     1      22.967  29.447   0.599  1.00  0.00     0.022 A 
ATOM     11  N   UNL     1      21.809  29.824  -1.444  1.00  0.00    -0.262 NA
ATOM     12  C   UNL     1      22.346  28.986  -0.542  1.00  0.00     0.111 A 
ENDBRANCH   4   7
TORSDOF 1
BEGIN_RES LYS A 135
REMARK  4 active torsions:
REMARK  status: ('A' for Active; 'I' for Inactive)
REMARK    1  A    between atoms: CA   and  CB  
REMARK    2  A    between atoms: CB   and  CG  
REMARK    3  A    between atoms: CG   and  CD  
REMARK    4  A    between atoms: CD   and  CE  
ROOT
ATOM      1  CA  LYS A 135      33.193  34.663   9.290  1.00 25.02     0.186 C 
ENDROOT
BRANCH   1   2
ATOM      2  CB  LYS A 135      32.060  35.360  10.034  1.00 26.63     0.034 C 
BRANCH   2   3
ATOM      3  CG  LYS A 135      30.800  35.500   9.219  1.00 29.45     0.005 C 
BRANCH   3   4
ATOM      4  CD  LYS A 135      30.013  34.198   9.220  1.00 32.00     0.041 C 
BRANCH   4   5
ATOM      5  CE  LYS A 135      28.590  34.436   8.754  1.00 34.25     0.338 C 
ATOM      6  NZ  LYS A 135      27.617  33.687   9.598  1.00 35.99     0.618 N 
ENDBRANCH   4   5
ENDBRANCH   3   4
ENDBRANCH   2   3
ENDBRANCH   1   2
END_RES LYS A 135
BEGIN_RES TYR A 136
REMARK  2 active torsions:
REMARK  status: ('A' for Active; 'I' for Inactive)
REMARK    5  A    between atoms: CA   and  CB  
REMARK    6  A    between atoms: CB   and  CG  
ROOT
ATOM      7  CA  TYR A 136      36.583  36.399   8.994  1.00 26.14     0.191 C 
ENDROOT
BRANCH   7   8
ATOM      8  CB  TYR A 136      37.367  36.835  10.240  1.00 28.16     0.060 C 
BRANCH   8   9
ATOM      9  CG  TYR A 136      37.199  38.303  10.547  1.00 31.88    -0.020 A 
ATOM     10  CD2 TYR A 136      36.515  39.151   9.673  1.00 32.67    -0.002 A 
ATOM     11  CE2 TYR A 136      36.366  40.513   9.967  1.00 33.89     0.027 A 
ATOM     12  CZ  TYR A 136      36.906  41.032  11.146  1.00 34.34     0.131 A 
ATOM     13  OH  TYR A 136      36.765  42.376  11.461  1.00 35.14    -0.190 OA
ATOM     14  CE1 TYR A 136      37.590  40.204  12.025  1.00 35.01     0.027 A 
ATOM     15  CD1 TYR A 136      37.737  38.850  11.719  1.00 33.57    -0.002 A 
ENDBRANCH   8   9
ENDBRANCH   7   8
END_RES TYR A 136
BEGIN_RES ASN A 133
REMARK  2 active torsions:
REMARK  status: ('A' for Active; 'I' for Inactive)
REMARK    7  A    between atoms: CA   and  CB  
REMARK    8  A    between atoms: CB   and  CG  
ROOT
ATOM     16  CA  ASN A 133      31.225  30.257  11.749  1.00 18.15     0.196 C 
ENDROOT
BRANCH  16  17
ATOM     17  CB  ASN A 133      30.092  31.240  11.460  1.00 18.27     0.126 C 
BRANCH  17  18
ATOM     18  CG  ASN A 133      28.748  30.585  11.373  1.00 18.94     0.276 C 
ATOM     19  OD1 ASN A 133      28.561  29.607  10.647  1.00 18.09    -0.269 OA
ATOM     20  ND2 ASN A 133      27.787  31.126  12.120  1.00 18.93    -0.107 N 
ENDBRANCH  17  18
ENDBRANCH  16  17
END_RES ASN A 133
