REMARK VINA RESULT:    -4.318      5.723     11.565
REMARK INTER + INTRA:          -7.661
REMARK INTER:                  -6.579
REMARK INTRA:                  -1.082
REMARK UNBOUND:                -2.839
REMARK SMILES Cc1cn(-c2ncn3c2c(=O)n(C(C)C)c2ccccc23)nn1
REMARK SMILES IDX 5 1 6 2 7 3 8 4 21 5 20 6 19 7 18 8 17 9 16 10 12 11 10 12
REMARK SMILES IDX 11 13 9 14 4 15 1 16 2 17 3 18 23 19 22 20 13 21 14 22 15 23
REMARK H PARENT
REMARK Flexibility Score: inf
ROOT
ATOM      1  C   UNL     1      24.968  35.969  10.256  1.00  0.00     0.186 A 
ATOM      2  N   UNL     1      25.099  35.017  11.191  1.00  0.00    -0.216 NA
ATOM      3  C   UNL     1      26.291  34.406  11.090  1.00  0.00     0.207 A 
ATOM      4  N   UNL     1      26.942  34.990  10.051  1.00  0.00    -0.291 N 
ATOM      5  C   UNL     1      28.163  34.781   9.501  1.00  0.00     0.071 A 
ATOM      6  C   UNL     1      28.921  33.792  10.087  1.00  0.00     0.029 A 
ATOM      7  C   UNL     1      30.167  33.564   9.550  1.00  0.00     0.002 A 
ATOM      8  C   UNL     1      30.642  34.282   8.481  1.00  0.00     0.002 A 
ATOM      9  C   UNL     1      29.874  35.261   7.913  1.00  0.00     0.028 A 
ATOM     10  C   UNL     1      28.624  35.510   8.429  1.00  0.00     0.068 A 
ATOM     11  N   UNL     1      27.793  36.477   7.920  1.00  0.00    -0.302 N 
ATOM     12  C   UNL     1      26.580  36.696   8.455  1.00  0.00     0.279 A 
ATOM     13  O   UNL     1      25.768  37.564   8.042  1.00  0.00    -0.267 OA
ATOM     14  C   UNL     1      26.147  35.947   9.531  1.00  0.00     0.158 A 
ENDROOT
BRANCH   1  15
ATOM     15  N   UNL     1      23.838  36.839  10.040  1.00  0.00    -0.200 N 
ATOM     16  C   UNL     1      20.602  37.772   8.679  1.00  0.00     0.070 C 
ATOM     17  C   UNL     1      21.924  37.661   9.362  1.00  0.00     0.080 A 
ATOM     18  C   UNL     1      22.746  36.568   9.302  1.00  0.00     0.142 A 
ATOM     19  N   UNL     1      22.522  38.572  10.127  1.00  0.00    -0.135 NA
ATOM     20  N   UNL     1      23.677  38.057  10.527  1.00  0.00    -0.061 NA
ENDBRANCH   1  15
BRANCH  11  21
ATOM     21  C   UNL     1      28.270  37.221   6.808  1.00  0.00     0.085 C 
ATOM     22  C   UNL     1      27.492  36.895   5.555  1.00  0.00     0.031 C 
ATOM     23  C   UNL     1      28.197  38.721   7.002  1.00  0.00     0.031 C 
ENDBRANCH  11  21
TORSDOF 2
BEGIN_RES LYS A 135
REMARK  4 active torsions:
REMARK  status: ('A' for Active; 'I' for Inactive)
REMARK    1  A    between atoms: CA   and  CB  
REMARK    2  A    between atoms: CB   and  CG  
REMARK    3  A    between atoms: CG   and  CD  
REMARK    4  A    between atoms: CD   and  CE  
ROOT
ATOM      1  CA  LYS A 135      33.193  34.663   9.290  1.00 25.02     0.186 C 
ENDROOT
BRANCH   1   2
ATOM      2  CB  LYS A 135      32.060  35.360  10.034  1.00 26.63     0.034 C 
BRANCH   2   3
ATOM      3  CG  LYS A 135      32.425  35.773  11.437  1.00 29.45     0.005 C 
BRANCH   3   4
ATOM      4  CD  LYS A 135      31.776  37.103  11.790  1.00 32.00     0.041 C 
BRANCH   4   5
ATOM      5  CE  LYS A 135      30.751  37.491  10.741  1.00 34.25     0.338 C 
ATOM      6  NZ  LYS A 135      29.387  37.581  11.332  1.00 35.99     0.618 N 
ENDBRANCH   4   5
ENDBRANCH   3   4
ENDBRANCH   2   3
ENDBRANCH   1   2
END_RES LYS A 135
BEGIN_RES TYR A 136
REMARK  2 active torsions:
REMARK  status: ('A' for Active; 'I' for Inactive)
REMARK    5  A    between atoms: CA   and  CB  
REMARK    6  A    between atoms: CB   and  CG  
ROOT
ATOM      7  CA  TYR A 136      36.583  36.399   8.994  1.00 26.14     0.191 C 
ENDROOT
BRANCH   7   8
ATOM      8  CB  TYR A 136      37.367  36.835  10.240  1.00 28.16     0.060 C 
BRANCH   8   9
ATOM      9  CG  TYR A 136      37.194  38.301  10.551  1.00 31.88    -0.020 A 
ATOM     10  CD2 TYR A 136      37.348  38.788  11.851  1.00 32.67    -0.002 A 
ATOM     11  CE2 TYR A 136      37.183  40.152  12.129  1.00 33.89     0.027 A 
ATOM     12  CZ  TYR A 136      36.862  41.037  11.097  1.00 34.34     0.131 A 
ATOM     13  OH  TYR A 136      36.701  42.392  11.348  1.00 35.14    -0.190 OA
ATOM     14  CE1 TYR A 136      36.704  40.570   9.800  1.00 35.01     0.027 A 
ATOM     15  CD1 TYR A 136      36.864  39.209   9.536  1.00 33.57    -0.002 A 
ENDBRANCH   8   9
ENDBRANCH   7   8
END_RES TYR A 136
BEGIN_RES ASN A 133
REMARK  2 active torsions:
REMARK  status: ('A' for Active; 'I' for Inactive)
REMARK    7  A    between atoms: CA   and  CB  
REMARK    8  A    between atoms: CB   and  CG  
ROOT
ATOM     16  CA  ASN A 133      31.225  30.257  11.749  1.00 18.15     0.196 C 
ENDROOT
BRANCH  16  17
ATOM     17  CB  ASN A 133      30.092  31.240  11.460  1.00 18.27     0.126 C 
BRANCH  17  18
ATOM     18  CG  ASN A 133      28.750  30.583  11.358  1.00 18.94     0.276 C 
ATOM     19  OD1 ASN A 133      28.548  29.666  10.560  1.00 18.09    -0.269 OA
ATOM     20  ND2 ASN A 133      27.808  31.053  12.175  1.00 18.93    -0.107 N 
ENDBRANCH  17  18
ENDBRANCH  16  17
END_RES ASN A 133
