REMARK VINA RESULT:    -5.772      5.848     10.375
REMARK INTER + INTRA:         -10.731
REMARK INTER:                  -6.867
REMARK INTRA:                  -3.864
REMARK UNBOUND:                -3.778
REMARK SMILES Cc1cn(-c2ccc(-c3c4ccc(=O)cc-4oc4cc(O)ccc34)c(C(=O)[O-])c2)nn1
REMARK SMILES IDX 9 1 24 2 23 3 22 4 20 5 19 6 18 7 17 8 16 9 15 10 13 11
REMARK SMILES IDX 14 12 12 13 11 14 10 15 8 16 5 17 29 18 6 19 25 20 7 21 4 22
REMARK SMILES IDX 1 23 2 24 3 25 31 26 30 27 26 28 27 29 28 30 21 31
REMARK H PARENT 21 32
REMARK Flexibility Score: inf
ROOT
ATOM      1  C   UNL     1      36.856  39.465   5.180  1.00  0.00     0.004 A 
ATOM      2  C   UNL     1      36.942  38.756   4.002  1.00  0.00     0.026 A 
ATOM      3  C   UNL     1      35.813  38.557   3.237  1.00  0.00     0.016 A 
ATOM      4  C   UNL     1      35.854  37.850   2.046  1.00  0.00     0.047 A 
ATOM      5  C   UNL     1      37.068  37.342   1.636  1.00  0.00     0.119 A 
ATOM      6  C   UNL     1      38.199  37.541   2.400  1.00  0.00     0.093 A 
ATOM      7  C   UNL     1      38.172  38.251   3.602  1.00  0.00     0.139 A 
ATOM      8  O   UNL     1      39.268  38.421   4.304  1.00  0.00    -0.456 OA
ATOM      9  C   UNL     1      39.288  39.073   5.424  1.00  0.00     0.139 A 
ATOM     10  C   UNL     1      40.415  39.272   6.185  1.00  0.00     0.099 A 
ATOM     11  C   UNL     1      40.307  39.982   7.358  1.00  0.00     0.182 A 
ATOM     12  O   UNL     1      41.342  40.158   8.047  1.00  0.00    -0.290 OA
ATOM     13  C   UNL     1      39.106  40.506   7.802  1.00  0.00     0.053 A 
ATOM     14  C   UNL     1      37.938  40.346   7.090  1.00  0.00     0.016 A 
ATOM     15  C   UNL     1      38.017  39.634   5.904  1.00  0.00     0.026 A 
ENDROOT
BRANCH   1  16
ATOM     16  C   UNL     1      35.570  39.989   5.590  1.00  0.00    -0.008 A 
ATOM     17  C   UNL     1      33.103  41.062   6.344  1.00  0.00     0.067 A 
ATOM     18  C   UNL     1      33.965  41.802   5.564  1.00  0.00     0.039 A 
ATOM     19  C   UNL     1      33.460  39.786   6.753  1.00  0.00     0.029 A 
ATOM     20  C   UNL     1      35.182  41.254   5.201  1.00  0.00     0.007 A 
ATOM     21  C   UNL     1      34.687  39.267   6.372  1.00  0.00     0.012 A 
BRANCH  17  22
ATOM     22  N   UNL     1      31.839  41.573   6.748  1.00  0.00    -0.220 N 
ATOM     23  C   UNL     1      28.291  41.163   7.639  1.00  0.00     0.070 C 
ATOM     24  C   UNL     1      29.681  41.608   7.327  1.00  0.00     0.080 A 
ATOM     25  C   UNL     1      30.731  40.800   6.942  1.00  0.00     0.140 A 
ATOM     26  N   UNL     1      30.188  42.854   7.356  1.00  0.00    -0.135 NA
ATOM     27  N   UNL     1      31.472  42.797   7.007  1.00  0.00    -0.062 NA
ENDBRANCH  17  22
BRANCH  20  28
ATOM     28  C   UNL     1      36.084  42.048   4.375  1.00  0.00     0.072 C 
ATOM     29  O   UNL     1      36.928  42.825   4.878  1.00  0.00    -0.545 OA
ATOM     30  O   UNL     1      36.041  41.968   2.990  1.00  0.00    -0.545 OA
ENDBRANCH  20  28
ENDBRANCH   1  16
BRANCH   5  31
ATOM     31  O   UNL     1      37.121  36.625   0.430  1.00  0.00    -0.508 OA
ATOM     32  H   UNL     1      37.032  35.618   0.438  1.00  0.00     0.293 HD
ENDBRANCH   5  31
TORSDOF 4
BEGIN_RES LYS A 135
REMARK  4 active torsions:
REMARK  status: ('A' for Active; 'I' for Inactive)
REMARK    1  A    between atoms: CA   and  CB  
REMARK    2  A    between atoms: CB   and  CG  
REMARK    3  A    between atoms: CG   and  CD  
REMARK    4  A    between atoms: CD   and  CE  
ROOT
ATOM      1  CA  LYS A 135      33.193  34.663   9.290  1.00 25.02     0.186 C 
ENDROOT
BRANCH   1   2
ATOM      2  CB  LYS A 135      32.060  35.360  10.034  1.00 26.63     0.034 C 
BRANCH   2   3
ATOM      3  CG  LYS A 135      30.844  35.612   9.180  1.00 29.45     0.005 C 
BRANCH   3   4
ATOM      4  CD  LYS A 135      30.240  34.300   8.705  1.00 32.00     0.041 C 
BRANCH   4   5
ATOM      5  CE  LYS A 135      28.743  34.443   8.507  1.00 34.25     0.338 C 
ATOM      6  NZ  LYS A 135      27.990  33.688   9.546  1.00 35.99     0.618 N 
ENDBRANCH   4   5
ENDBRANCH   3   4
ENDBRANCH   2   3
ENDBRANCH   1   2
END_RES LYS A 135
BEGIN_RES TYR A 136
REMARK  2 active torsions:
REMARK  status: ('A' for Active; 'I' for Inactive)
REMARK    5  A    between atoms: CA   and  CB  
REMARK    6  A    between atoms: CB   and  CG  
ROOT
ATOM      7  CA  TYR A 136      36.583  36.399   8.994  1.00 26.14     0.191 C 
ENDROOT
BRANCH   7   8
ATOM      8  CB  TYR A 136      37.367  36.835  10.240  1.00 28.16     0.060 C 
BRANCH   8   9
ATOM      9  CG  TYR A 136      37.270  38.319  10.497  1.00 31.88    -0.020 A 
ATOM     10  CD2 TYR A 136      38.275  39.000  11.187  1.00 32.67    -0.002 A 
ATOM     11  CE2 TYR A 136      38.174  40.379  11.422  1.00 33.89     0.027 A 
ATOM     12  CZ  TYR A 136      37.057  41.081  10.963  1.00 34.34     0.131 A 
ATOM     13  OH  TYR A 136      36.939  42.447  11.178  1.00 35.14    -0.190 OA
ATOM     14  CE1 TYR A 136      36.049  40.419  10.277  1.00 35.01     0.027 A 
ATOM     15  CD1 TYR A 136      36.157  39.045  10.054  1.00 33.57    -0.002 A 
ENDBRANCH   8   9
ENDBRANCH   7   8
END_RES TYR A 136
BEGIN_RES ASN A 133
REMARK  2 active torsions:
REMARK  status: ('A' for Active; 'I' for Inactive)
REMARK    7  A    between atoms: CA   and  CB  
REMARK    8  A    between atoms: CB   and  CG  
ROOT
ATOM     16  CA  ASN A 133      31.225  30.257  11.749  1.00 18.15     0.196 C 
ENDROOT
BRANCH  16  17
ATOM     17  CB  ASN A 133      30.092  31.240  11.460  1.00 18.27     0.126 C 
BRANCH  17  18
ATOM     18  CG  ASN A 133      28.751  30.583  11.357  1.00 18.94     0.276 C 
ATOM     19  OD1 ASN A 133      28.568  29.617  10.613  1.00 18.09    -0.269 OA
ATOM     20  ND2 ASN A 133      27.785  31.107  12.111  1.00 18.93    -0.107 N 
ENDBRANCH  17  18
ENDBRANCH  16  17
END_RES ASN A 133
