REMARK VINA RESULT:    -3.205      7.472      9.470
REMARK INTER + INTRA:          -6.643
REMARK INTER:                  -4.374
REMARK INTRA:                  -2.270
REMARK UNBOUND:                -3.251
REMARK SMILES Cc1cn([C@H]2C[C@H]3CC[C@@H](C2)N3C)nn1
REMARK SMILES IDX 5 1 11 2 10 3 12 4 13 5 7 6 6 7 8 8 9 9 4 10 1 11 2 12 3 13
REMARK SMILES IDX 15 14 14 15
REMARK H PARENT
REMARK Flexibility Score: inf
ROOT
ATOM      1  C   UNL     1      29.355  38.800   6.936  1.00  0.00     0.112 C 
ATOM      2  C   UNL     1      29.402  37.873   8.134  1.00  0.00     0.046 C 
ATOM      3  C   UNL     1      28.245  36.910   8.129  1.00  0.00     0.058 C 
ATOM      4  N   UNL     1      27.169  37.553   7.364  1.00  0.00    -0.300 NA
ATOM      5  C   UNL     1      25.955  36.861   7.703  1.00  0.00     0.105 C 
ATOM      6  C   UNL     1      27.587  37.293   5.999  1.00  0.00     0.058 C 
ATOM      7  C   UNL     1      28.899  37.994   5.751  1.00  0.00     0.046 C 
ATOM      8  C   UNL     1      27.889  35.799   6.022  1.00  0.00     0.021 C 
ATOM      9  C   UNL     1      28.519  35.645   7.385  1.00  0.00     0.021 C 
ENDROOT
BRANCH   1  10
ATOM     10  N   UNL     1      30.670  39.329   6.651  1.00  0.00    -0.249 N 
ATOM     11  C   UNL     1      34.087  40.348   7.417  1.00  0.00     0.070 C 
ATOM     12  C   UNL     1      32.774  40.030   6.810  1.00  0.00     0.080 A 
ATOM     13  C   UNL     1      31.694  39.488   7.498  1.00  0.00     0.134 A 
ATOM     14  N   UNL     1      32.349  40.179   5.552  1.00  0.00    -0.136 NA
ATOM     15  N   UNL     1      31.100  39.759   5.473  1.00  0.00    -0.067 NA
ENDBRANCH   1  10
TORSDOF 1
BEGIN_RES LYS A 135
REMARK  4 active torsions:
REMARK  status: ('A' for Active; 'I' for Inactive)
REMARK    1  A    between atoms: CA   and  CB  
REMARK    2  A    between atoms: CB   and  CG  
REMARK    3  A    between atoms: CG   and  CD  
REMARK    4  A    between atoms: CD   and  CE  
ROOT
ATOM      1  CA  LYS A 135      33.193  34.663   9.290  1.00 25.02     0.186 C 
ENDROOT
BRANCH   1   2
ATOM      2  CB  LYS A 135      32.060  35.360  10.034  1.00 26.63     0.034 C 
BRANCH   2   3
ATOM      3  CG  LYS A 135      30.763  34.593  10.011  1.00 29.45     0.005 C 
BRANCH   3   4
ATOM      4  CD  LYS A 135      29.846  35.057  11.132  1.00 32.00     0.041 C 
BRANCH   4   5
ATOM      5  CE  LYS A 135      30.502  34.840  12.482  1.00 34.25     0.338 C 
ATOM      6  NZ  LYS A 135      29.550  34.226  13.449  1.00 35.99     0.618 N 
ENDBRANCH   4   5
ENDBRANCH   3   4
ENDBRANCH   2   3
ENDBRANCH   1   2
END_RES LYS A 135
BEGIN_RES TYR A 136
REMARK  2 active torsions:
REMARK  status: ('A' for Active; 'I' for Inactive)
REMARK    5  A    between atoms: CA   and  CB  
REMARK    6  A    between atoms: CB   and  CG  
ROOT
ATOM      7  CA  TYR A 136      36.583  36.399   8.994  1.00 26.14     0.191 C 
ENDROOT
BRANCH   7   8
ATOM      8  CB  TYR A 136      37.367  36.835  10.240  1.00 28.16     0.060 C 
BRANCH   8   9
ATOM      9  CG  TYR A 136      37.269  38.319  10.497  1.00 31.88    -0.020 A 
ATOM     10  CD2 TYR A 136      37.288  38.830  11.797  1.00 32.67    -0.002 A 
ATOM     11  CE2 TYR A 136      37.195  40.210  12.025  1.00 33.89     0.027 A 
ATOM     12  CZ  TYR A 136      37.082  41.086  10.943  1.00 34.34     0.131 A 
ATOM     13  OH  TYR A 136      36.996  42.456  11.145  1.00 35.14    -0.190 OA
ATOM     14  CE1 TYR A 136      37.061  40.595   9.645  1.00 35.01     0.027 A 
ATOM     15  CD1 TYR A 136      37.148  39.219   9.431  1.00 33.57    -0.002 A 
ENDBRANCH   8   9
ENDBRANCH   7   8
END_RES TYR A 136
BEGIN_RES ASN A 133
REMARK  2 active torsions:
REMARK  status: ('A' for Active; 'I' for Inactive)
REMARK    7  A    between atoms: CA   and  CB  
REMARK    8  A    between atoms: CB   and  CG  
ROOT
ATOM     16  CA  ASN A 133      31.225  30.257  11.749  1.00 18.15     0.196 C 
ENDROOT
BRANCH  16  17
ATOM     17  CB  ASN A 133      30.092  31.240  11.460  1.00 18.27     0.126 C 
BRANCH  17  18
ATOM     18  CG  ASN A 133      28.748  30.586  11.376  1.00 18.94     0.276 C 
ATOM     19  OD1 ASN A 133      28.557  29.609  10.649  1.00 18.09    -0.269 OA
ATOM     20  ND2 ASN A 133      27.789  31.125  12.129  1.00 18.93    -0.107 N 
ENDBRANCH  17  18
ENDBRANCH  16  17
END_RES ASN A 133
