REMARK VINA RESULT:    -5.023      3.511      5.496
REMARK INTER + INTRA:          -9.829
REMARK INTER:                  -6.437
REMARK INTRA:                  -3.392
REMARK UNBOUND:                -3.778
REMARK SMILES Cc1cn(-c2ccc(-c3c4ccc(=O)cc-4oc4cc(O)ccc34)c(C(=O)[O-])c2)nn1
REMARK SMILES IDX 9 1 24 2 23 3 22 4 20 5 19 6 18 7 17 8 16 9 15 10 13 11
REMARK SMILES IDX 14 12 12 13 11 14 10 15 8 16 5 17 29 18 6 19 25 20 7 21 4 22
REMARK SMILES IDX 1 23 2 24 3 25 31 26 30 27 26 28 27 29 28 30 21 31
REMARK H PARENT 21 32
REMARK Flexibility Score: inf
ROOT
ATOM      1  C   UNL     1      30.758  38.675   9.475  1.00  0.00     0.004 A 
ATOM      2  C   UNL     1      31.336  39.186   8.333  1.00  0.00     0.026 A 
ATOM      3  C   UNL     1      32.653  39.591   8.353  1.00  0.00     0.016 A 
ATOM      4  C   UNL     1      33.274  40.111   7.228  1.00  0.00     0.047 A 
ATOM      5  C   UNL     1      32.534  40.215   6.071  1.00  0.00     0.119 A 
ATOM      6  C   UNL     1      31.215  39.810   6.049  1.00  0.00     0.093 A 
ATOM      7  C   UNL     1      30.578  39.285   7.175  1.00  0.00     0.139 A 
ATOM      8  O   UNL     1      29.321  38.909   7.118  1.00  0.00    -0.456 OA
ATOM      9  C   UNL     1      28.691  38.417   8.138  1.00  0.00     0.139 A 
ATOM     10  C   UNL     1      27.378  38.013   8.116  1.00  0.00     0.099 A 
ATOM     11  C   UNL     1      26.821  37.505   9.267  1.00  0.00     0.182 A 
ATOM     12  O   UNL     1      25.620  37.139   9.237  1.00  0.00    -0.290 OA
ATOM     13  C   UNL     1      27.531  37.386  10.447  1.00  0.00     0.053 A 
ATOM     14  C   UNL     1      28.851  37.770  10.541  1.00  0.00     0.016 A 
ATOM     15  C   UNL     1      29.439  38.285   9.397  1.00  0.00     0.026 A 
ENDROOT
BRANCH   1  16
ATOM     16  C   UNL     1      31.556  38.575  10.679  1.00  0.00    -0.008 A 
ATOM     17  C   UNL     1      33.072  38.449  13.023  1.00  0.00     0.067 A 
ATOM     18  C   UNL     1      32.313  39.569  12.754  1.00  0.00     0.039 A 
ATOM     19  C   UNL     1      33.081  37.387  12.131  1.00  0.00     0.029 A 
ATOM     20  C   UNL     1      31.570  39.613  11.588  1.00  0.00     0.007 A 
ATOM     21  C   UNL     1      32.325  37.464  10.973  1.00  0.00     0.012 A 
BRANCH  17  22
ATOM     22  N   UNL     1      33.856  38.348  14.205  1.00  0.00    -0.220 N 
ATOM     23  C   UNL     1      36.103  36.522  16.479  1.00  0.00     0.070 C 
ATOM     24  C   UNL     1      35.215  37.475  15.749  1.00  0.00     0.080 A 
ATOM     25  C   UNL     1      34.574  37.239  14.550  1.00  0.00     0.140 A 
ATOM     26  N   UNL     1      34.866  38.727  16.095  1.00  0.00    -0.135 NA
ATOM     27  N   UNL     1      34.058  39.216  15.156  1.00  0.00    -0.062 NA
ENDBRANCH  17  22
BRANCH  20  28
ATOM     28  C   UNL     1      30.772  40.803  11.316  1.00  0.00     0.072 C 
ATOM     29  O   UNL     1      29.595  40.916  11.729  1.00  0.00    -0.545 OA
ATOM     30  O   UNL     1      31.294  41.861  10.587  1.00  0.00    -0.545 OA
ENDBRANCH  20  28
ENDBRANCH   1  16
BRANCH   5  31
ATOM     31  O   UNL     1      33.153  40.740   4.925  1.00  0.00    -0.508 OA
ATOM     32  H   UNL     1      32.975  40.326   4.021  1.00  0.00     0.293 HD
ENDBRANCH   5  31
TORSDOF 4
BEGIN_RES LYS A 135
REMARK  4 active torsions:
REMARK  status: ('A' for Active; 'I' for Inactive)
REMARK    1  A    between atoms: CA   and  CB  
REMARK    2  A    between atoms: CB   and  CG  
REMARK    3  A    between atoms: CG   and  CD  
REMARK    4  A    between atoms: CD   and  CE  
ROOT
ATOM      1  CA  LYS A 135      33.193  34.663   9.290  1.00 25.02     0.186 C 
ENDROOT
BRANCH   1   2
ATOM      2  CB  LYS A 135      32.060  35.360  10.034  1.00 26.63     0.034 C 
BRANCH   2   3
ATOM      3  CG  LYS A 135      30.718  34.703   9.840  1.00 29.45     0.005 C 
BRANCH   3   4
ATOM      4  CD  LYS A 135      30.339  34.680   8.367  1.00 32.00     0.041 C 
BRANCH   4   5
ATOM      5  CE  LYS A 135      28.833  34.606   8.205  1.00 34.25     0.338 C 
ATOM      6  NZ  LYS A 135      28.205  33.890   9.350  1.00 35.99     0.618 N 
ENDBRANCH   4   5
ENDBRANCH   3   4
ENDBRANCH   2   3
ENDBRANCH   1   2
END_RES LYS A 135
BEGIN_RES TYR A 136
REMARK  2 active torsions:
REMARK  status: ('A' for Active; 'I' for Inactive)
REMARK    5  A    between atoms: CA   and  CB  
REMARK    6  A    between atoms: CB   and  CG  
ROOT
ATOM      7  CA  TYR A 136      36.583  36.399   8.994  1.00 26.14     0.191 C 
ENDROOT
BRANCH   7   8
ATOM      8  CB  TYR A 136      37.367  36.835  10.240  1.00 28.16     0.060 C 
BRANCH   8   9
ATOM      9  CG  TYR A 136      36.834  38.111  10.844  1.00 31.88    -0.020 A 
ATOM     10  CD2 TYR A 136      37.212  38.518  12.125  1.00 32.67    -0.002 A 
ATOM     11  CE2 TYR A 136      36.710  39.704  12.678  1.00 33.89     0.027 A 
ATOM     12  CZ  TYR A 136      35.821  40.490  11.941  1.00 34.34     0.131 A 
ATOM     13  OH  TYR A 136      35.316  41.672  12.465  1.00 35.14    -0.190 OA
ATOM     14  CE1 TYR A 136      35.433  40.100  10.667  1.00 35.01     0.027 A 
ATOM     15  CD1 TYR A 136      35.935  38.914  10.130  1.00 33.57    -0.002 A 
ENDBRANCH   8   9
ENDBRANCH   7   8
END_RES TYR A 136
BEGIN_RES ASN A 133
REMARK  2 active torsions:
REMARK  status: ('A' for Active; 'I' for Inactive)
REMARK    7  A    between atoms: CA   and  CB  
REMARK    8  A    between atoms: CB   and  CG  
ROOT
ATOM     16  CA  ASN A 133      31.225  30.257  11.749  1.00 18.15     0.196 C 
ENDROOT
BRANCH  16  17
ATOM     17  CB  ASN A 133      30.092  31.240  11.460  1.00 18.27     0.126 C 
BRANCH  17  18
ATOM     18  CG  ASN A 133      28.750  30.583  11.359  1.00 18.94     0.276 C 
ATOM     19  OD1 ASN A 133      27.800  30.963  12.046  1.00 18.09    -0.269 OA
ATOM     20  ND2 ASN A 133      28.658  29.576  10.492  1.00 18.93    -0.107 N 
ENDBRANCH  17  18
ENDBRANCH  16  17
END_RES ASN A 133
