REMARK VINA RESULT:    -4.192      9.011     13.932
REMARK INTER + INTRA:          -7.921
REMARK INTER:                  -4.652
REMARK INTRA:                  -3.269
REMARK UNBOUND:                -3.239
REMARK SMILES Cc1cn(Cc2ccc(Br)cc2)nn1
REMARK SMILES IDX 5 1 4 2 1 3 2 4 3 5 14 6 13 7 6 8 7 9 12 10 8 11 11 12 9 13
REMARK SMILES IDX 10 14
REMARK H PARENT
REMARK Flexibility Score: inf
ROOT
ATOM      1  C   UNL     1      21.013  33.539  -1.228  1.00  0.00     0.181 C 
ENDROOT
BRANCH   1   2
ATOM      2  N   UNL     1      21.715  32.393  -0.637  1.00  0.00    -0.248 N 
ATOM      3  C   UNL     1      22.988  28.941  -0.462  1.00  0.00     0.070 C 
ATOM      4  C   UNL     1      22.590  30.381  -0.281  1.00  0.00     0.080 A 
ATOM      5  C   UNL     1      21.861  31.162  -1.161  1.00  0.00     0.134 A 
ATOM      6  N   UNL     1      22.860  31.186   0.759  1.00  0.00    -0.136 NA
ATOM      7  N   UNL     1      22.331  32.368   0.521  1.00  0.00    -0.067 NA
ENDBRANCH   1   2
BRANCH   1   8
ATOM      8  C   UNL     1      21.936  34.693  -1.306  1.00  0.00    -0.026 A 
ATOM      9  C   UNL     1      22.966  34.670  -2.212  1.00  0.00     0.007 A 
ATOM     10  C   UNL     1      21.782  35.785  -0.486  1.00  0.00     0.007 A 
ATOM     11  C   UNL     1      23.809  35.756  -2.264  1.00  0.00     0.016 A 
ATOM     12  C   UNL     1      22.653  36.874  -0.558  1.00  0.00     0.016 A 
ATOM     13  C   UNL     1      23.691  36.869  -1.462  1.00  0.00     0.017 A 
ATOM     14  Br  UNL     1      24.854  38.367  -1.531  1.00  0.00    -0.051 Br
ENDBRANCH   1   8
TORSDOF 2
BEGIN_RES LYS A 135
REMARK  4 active torsions:
REMARK  status: ('A' for Active; 'I' for Inactive)
REMARK    1  A    between atoms: CA   and  CB  
REMARK    2  A    between atoms: CB   and  CG  
REMARK    3  A    between atoms: CG   and  CD  
REMARK    4  A    between atoms: CD   and  CE  
ROOT
ATOM      1  CA  LYS A 135      33.193  34.663   9.290  1.00 25.02     0.186 C 
ENDROOT
BRANCH   1   2
ATOM      2  CB  LYS A 135      32.060  35.360  10.034  1.00 26.63     0.034 C 
BRANCH   2   3
ATOM      3  CG  LYS A 135      30.702  34.770   9.753  1.00 29.45     0.005 C 
BRANCH   3   4
ATOM      4  CD  LYS A 135      30.526  34.513   8.265  1.00 32.00     0.041 C 
BRANCH   4   5
ATOM      5  CE  LYS A 135      29.141  34.934   7.811  1.00 34.25     0.338 C 
ATOM      6  NZ  LYS A 135      28.088  34.338   8.680  1.00 35.99     0.618 N 
ENDBRANCH   4   5
ENDBRANCH   3   4
ENDBRANCH   2   3
ENDBRANCH   1   2
END_RES LYS A 135
BEGIN_RES TYR A 136
REMARK  2 active torsions:
REMARK  status: ('A' for Active; 'I' for Inactive)
REMARK    5  A    between atoms: CA   and  CB  
REMARK    6  A    between atoms: CB   and  CG  
ROOT
ATOM      7  CA  TYR A 136      36.583  36.399   8.994  1.00 26.14     0.191 C 
ENDROOT
BRANCH   7   8
ATOM      8  CB  TYR A 136      37.367  36.835  10.240  1.00 28.16     0.060 C 
BRANCH   8   9
ATOM      9  CG  TYR A 136      37.309  38.325  10.470  1.00 31.88    -0.020 A 
ATOM     10  CD2 TYR A 136      38.308  38.985  11.189  1.00 32.67    -0.002 A 
ATOM     11  CE2 TYR A 136      38.243  40.370  11.399  1.00 33.89     0.027 A 
ATOM     12  CZ  TYR A 136      37.168  41.100  10.885  1.00 34.34     0.131 A 
ATOM     13  OH  TYR A 136      37.087  42.473  11.074  1.00 35.14    -0.190 OA
ATOM     14  CE1 TYR A 136      36.167  40.460  10.170  1.00 35.01     0.027 A 
ATOM     15  CD1 TYR A 136      36.239  39.080   9.973  1.00 33.57    -0.002 A 
ENDBRANCH   8   9
ENDBRANCH   7   8
END_RES TYR A 136
BEGIN_RES ASN A 133
REMARK  2 active torsions:
REMARK  status: ('A' for Active; 'I' for Inactive)
REMARK    7  A    between atoms: CA   and  CB  
REMARK    8  A    between atoms: CB   and  CG  
ROOT
ATOM     16  CA  ASN A 133      31.225  30.257  11.749  1.00 18.15     0.196 C 
ENDROOT
BRANCH  16  17
ATOM     17  CB  ASN A 133      30.092  31.240  11.460  1.00 18.27     0.126 C 
BRANCH  17  18
ATOM     18  CG  ASN A 133      28.750  30.583  11.357  1.00 18.94     0.276 C 
ATOM     19  OD1 ASN A 133      28.573  29.605  10.628  1.00 18.09    -0.269 OA
ATOM     20  ND2 ASN A 133      27.780  31.121  12.094  1.00 18.93    -0.107 N 
ENDBRANCH  17  18
ENDBRANCH  16  17
END_RES ASN A 133
