REMARK VINA RESULT:    -5.813      2.514      4.909
REMARK INTER + INTRA:         -10.151
REMARK INTER:                  -6.568
REMARK INTRA:                  -3.583
REMARK UNBOUND:                -3.149
REMARK SMILES Cc1cn(-c2cc(C(=O)O)nc(-c3ccccc3)c2)nn1
REMARK SMILES IDX 5 1 6 2 7 3 11 4 12 5 19 6 4 7 1 8 2 9 3 10 21 11 20 12 8 13
REMARK SMILES IDX 9 14 10 15 13 17 14 18 18 19 15 20 17 21 16 22
REMARK H PARENT 10 16
REMARK Flexibility Score: inf
ROOT
ATOM      1  C   UNL     1      39.215  34.658  13.320  1.00  0.00     0.071 A 
ATOM      2  C   UNL     1      37.945  34.799  12.810  1.00  0.00     0.064 A 
ATOM      3  C   UNL     1      36.833  34.786  13.645  1.00  0.00     0.151 A 
ATOM      4  N   UNL     1      37.030  34.633  14.961  1.00  0.00    -0.241 NA
ATOM      5  C   UNL     1      38.244  34.488  15.540  1.00  0.00     0.073 A 
ATOM      6  C   UNL     1      39.333  34.503  14.696  1.00  0.00     0.057 A 
ENDROOT
BRANCH   1   7
ATOM      7  N   UNL     1      40.377  34.665  12.504  1.00  0.00    -0.220 N 
ATOM      8  C   UNL     1      43.499  33.358  11.082  1.00  0.00     0.070 C 
ATOM      9  C   UNL     1      42.287  34.115  11.489  1.00  0.00     0.080 A 
ATOM     10  C   UNL     1      41.326  33.713  12.394  1.00  0.00     0.140 A 
ATOM     11  N   UNL     1      41.875  35.333  11.068  1.00  0.00    -0.135 NA
ATOM     12  N   UNL     1      40.745  35.636  11.681  1.00  0.00    -0.062 NA
ENDBRANCH   1   7
BRANCH   3  13
ATOM     13  C   UNL     1      35.512  34.940  13.054  1.00  0.00     0.354 C 
ATOM     14  O   UNL     1      35.155  36.091  12.699  1.00  0.00    -0.245 OA
BRANCH  13  15
ATOM     15  O   UNL     1      34.643  33.881  12.870  1.00  0.00    -0.477 OA
ATOM     16  H   UNL     1      34.637  33.067  13.501  1.00  0.00     0.297 HD
ENDBRANCH  13  15
ENDBRANCH   3  13
BRANCH   5  17
ATOM     17  C   UNL     1      38.328  34.328  16.984  1.00  0.00     0.000 A 
ATOM     18  C   UNL     1      38.083  35.348  17.852  1.00  0.00     0.010 A 
ATOM     19  C   UNL     1      38.667  33.103  17.514  1.00  0.00     0.010 A 
ATOM     20  C   UNL     1      38.184  35.116  19.229  1.00  0.00     0.001 A 
ATOM     21  C   UNL     1      38.768  32.869  18.856  1.00  0.00     0.001 A 
ATOM     22  C   UNL     1      38.521  33.897  19.735  1.00  0.00     0.000 A 
ENDBRANCH   5  17
TORSDOF 4
BEGIN_RES LYS A 135
REMARK  4 active torsions:
REMARK  status: ('A' for Active; 'I' for Inactive)
REMARK    1  A    between atoms: CA   and  CB  
REMARK    2  A    between atoms: CB   and  CG  
REMARK    3  A    between atoms: CG   and  CD  
REMARK    4  A    between atoms: CD   and  CE  
ROOT
ATOM      1  CA  LYS A 135      33.193  34.663   9.290  1.00 25.02     0.186 C 
ENDROOT
BRANCH   1   2
ATOM      2  CB  LYS A 135      32.060  35.360  10.034  1.00 26.63     0.034 C 
BRANCH   2   3
ATOM      3  CG  LYS A 135      30.802  35.505   9.217  1.00 29.45     0.005 C 
BRANCH   3   4
ATOM      4  CD  LYS A 135      30.122  34.158   9.034  1.00 32.00     0.041 C 
BRANCH   4   5
ATOM      5  CE  LYS A 135      28.673  34.343   8.625  1.00 34.25     0.338 C 
ATOM      6  NZ  LYS A 135      27.752  33.731   9.622  1.00 35.99     0.618 N 
ENDBRANCH   4   5
ENDBRANCH   3   4
ENDBRANCH   2   3
ENDBRANCH   1   2
END_RES LYS A 135
BEGIN_RES TYR A 136
REMARK  2 active torsions:
REMARK  status: ('A' for Active; 'I' for Inactive)
REMARK    5  A    between atoms: CA   and  CB  
REMARK    6  A    between atoms: CB   and  CG  
ROOT
ATOM      7  CA  TYR A 136      36.583  36.399   8.994  1.00 26.14     0.191 C 
ENDROOT
BRANCH   7   8
ATOM      8  CB  TYR A 136      37.367  36.835  10.240  1.00 28.16     0.060 C 
BRANCH   8   9
ATOM      9  CG  TYR A 136      37.239  38.312  10.519  1.00 31.88    -0.020 A 
ATOM     10  CD2 TYR A 136      35.995  38.948  10.492  1.00 32.67    -0.002 A 
ATOM     11  CE2 TYR A 136      35.887  40.321  10.751  1.00 33.89     0.027 A 
ATOM     12  CZ  TYR A 136      37.034  41.066  11.038  1.00 34.34     0.131 A 
ATOM     13  OH  TYR A 136      36.950  42.425  11.304  1.00 35.14    -0.190 OA
ATOM     14  CE1 TYR A 136      38.277  40.451  11.067  1.00 35.01     0.027 A 
ATOM     15  CD1 TYR A 136      38.373  39.084  10.802  1.00 33.57    -0.002 A 
ENDBRANCH   8   9
ENDBRANCH   7   8
END_RES TYR A 136
BEGIN_RES ASN A 133
REMARK  2 active torsions:
REMARK  status: ('A' for Active; 'I' for Inactive)
REMARK    7  A    between atoms: CA   and  CB  
REMARK    8  A    between atoms: CB   and  CG  
ROOT
ATOM     16  CA  ASN A 133      31.225  30.257  11.749  1.00 18.15     0.196 C 
ENDROOT
BRANCH  16  17
ATOM     17  CB  ASN A 133      30.092  31.240  11.460  1.00 18.27     0.126 C 
BRANCH  17  18
ATOM     18  CG  ASN A 133      28.752  30.581  11.346  1.00 18.94     0.276 C 
ATOM     19  OD1 ASN A 133      28.581  29.607  10.611  1.00 18.09    -0.269 OA
ATOM     20  ND2 ASN A 133      27.776  31.115  12.079  1.00 18.93    -0.107 N 
ENDBRANCH  17  18
ENDBRANCH  16  17
END_RES ASN A 133
