REMARK VINA RESULT:    -4.978      2.212      3.626
REMARK INTER + INTRA:          -7.958
REMARK INTER:                  -4.685
REMARK INTRA:                  -3.273
REMARK UNBOUND:                -2.398
REMARK SMILES CC(=O)c1ccccc1-n1cc(C)nn1
REMARK SMILES IDX 9 1 4 2 5 3 6 4 7 5 8 6 10 7 13 8 12 9 11 10 14 11 15 12
REMARK SMILES IDX 2 13 3 14 1 15
REMARK H PARENT
REMARK Flexibility Score: inf
ROOT
ATOM      1  C   UNL     1      36.512  36.546  13.882  1.00  0.00     0.077 A 
ATOM      2  C   UNL     1      37.648  35.793  13.607  1.00  0.00     0.043 A 
ATOM      3  C   UNL     1      38.908  36.357  13.642  1.00  0.00     0.014 A 
ATOM      4  C   UNL     1      39.087  37.669  13.948  1.00  0.00     0.001 A 
ATOM      5  C   UNL     1      37.991  38.451  14.227  1.00  0.00     0.002 A 
ATOM      6  C   UNL     1      36.744  37.871  14.187  1.00  0.00     0.029 A 
ENDROOT
BRANCH   1   7
ATOM      7  N   UNL     1      35.217  35.966  13.845  1.00  0.00    -0.220 N 
ATOM      8  C   UNL     1      32.275  34.206  15.144  1.00  0.00     0.070 C 
ATOM      9  C   UNL     1      33.332  34.926  14.404  1.00  0.00     0.080 A 
ATOM     10  C   UNL     1      34.558  35.347  14.837  1.00  0.00     0.140 A 
ATOM     11  N   UNL     1      33.274  35.318  13.097  1.00  0.00    -0.135 NA
ATOM     12  N   UNL     1      34.406  35.932  12.801  1.00  0.00    -0.062 NA
ENDBRANCH   1   7
BRANCH   2  13
ATOM     13  C   UNL     1      37.554  34.396  13.273  1.00  0.00     0.161 C 
ATOM     14  O   UNL     1      37.672  33.559  14.188  1.00  0.00    -0.294 OA
ATOM     15  C   UNL     1      37.327  33.947  11.893  1.00  0.00     0.093 C 
ENDBRANCH   2  13
TORSDOF 2
BEGIN_RES LYS A 135
REMARK  4 active torsions:
REMARK  status: ('A' for Active; 'I' for Inactive)
REMARK    1  A    between atoms: CA   and  CB  
REMARK    2  A    between atoms: CB   and  CG  
REMARK    3  A    between atoms: CG   and  CD  
REMARK    4  A    between atoms: CD   and  CE  
ROOT
ATOM      1  CA  LYS A 135      33.193  34.663   9.290  1.00 25.02     0.186 C 
ENDROOT
BRANCH   1   2
ATOM      2  CB  LYS A 135      32.060  35.360  10.034  1.00 26.63     0.034 C 
BRANCH   2   3
ATOM      3  CG  LYS A 135      30.856  35.640   9.172  1.00 29.45     0.005 C 
BRANCH   3   4
ATOM      4  CD  LYS A 135      30.257  34.343   8.650  1.00 32.00     0.041 C 
BRANCH   4   5
ATOM      5  CE  LYS A 135      28.803  34.544   8.267  1.00 34.25     0.338 C 
ATOM      6  NZ  LYS A 135      28.683  35.374   7.037  1.00 35.99     0.618 N 
ENDBRANCH   4   5
ENDBRANCH   3   4
ENDBRANCH   2   3
ENDBRANCH   1   2
END_RES LYS A 135
BEGIN_RES TYR A 136
REMARK  2 active torsions:
REMARK  status: ('A' for Active; 'I' for Inactive)
REMARK    5  A    between atoms: CA   and  CB  
REMARK    6  A    between atoms: CB   and  CG  
ROOT
ATOM      7  CA  TYR A 136      36.583  36.399   8.994  1.00 26.14     0.191 C 
ENDROOT
BRANCH   7   8
ATOM      8  CB  TYR A 136      37.367  36.835  10.240  1.00 28.16     0.060 C 
BRANCH   8   9
ATOM      9  CG  TYR A 136      37.170  38.295  10.568  1.00 31.88    -0.020 A 
ATOM     10  CD2 TYR A 136      35.898  38.815  10.816  1.00 32.67    -0.002 A 
ATOM     11  CE2 TYR A 136      35.726  40.173  11.118  1.00 33.89     0.027 A 
ATOM     12  CZ  TYR A 136      36.837  41.018  11.172  1.00 34.34     0.131 A 
ATOM     13  OH  TYR A 136      36.691  42.364  11.477  1.00 35.14    -0.190 OA
ATOM     14  CE1 TYR A 136      38.108  40.518  10.928  1.00 35.01     0.027 A 
ATOM     15  CD1 TYR A 136      38.266  39.165  10.622  1.00 33.57    -0.002 A 
ENDBRANCH   8   9
ENDBRANCH   7   8
END_RES TYR A 136
BEGIN_RES ASN A 133
REMARK  2 active torsions:
REMARK  status: ('A' for Active; 'I' for Inactive)
REMARK    7  A    between atoms: CA   and  CB  
REMARK    8  A    between atoms: CB   and  CG  
ROOT
ATOM     16  CA  ASN A 133      31.225  30.257  11.749  1.00 18.15     0.196 C 
ENDROOT
BRANCH  16  17
ATOM     17  CB  ASN A 133      30.092  31.240  11.460  1.00 18.27     0.126 C 
BRANCH  17  18
ATOM     18  CG  ASN A 133      28.751  30.583  11.357  1.00 18.94     0.276 C 
ATOM     19  OD1 ASN A 133      28.574  29.602  10.632  1.00 18.09    -0.269 OA
ATOM     20  ND2 ASN A 133      27.778  31.125  12.089  1.00 18.93    -0.107 N 
ENDBRANCH  17  18
ENDBRANCH  16  17
END_RES ASN A 133
