REMARK VINA RESULT:    -3.065      1.468      2.109
REMARK INTER + INTRA:          -6.911
REMARK INTER:                  -3.820
REMARK INTRA:                  -3.092
REMARK UNBOUND:                -3.309
REMARK SMILES Cc1cn(CCC2OCCO2)nn1
REMARK SMILES IDX 5 1 4 2 1 3 2 4 3 5 13 6 12 7 6 8 7 9 8 10 11 11 9 12 10 13
REMARK H PARENT
REMARK Flexibility Score: inf
ROOT
ATOM      1  C   UNL     1      22.931  36.132  -1.123  1.00  0.00     0.151 C 
ENDROOT
BRANCH   1   2
ATOM      2  N   UNL     1      22.785  34.799  -0.601  1.00  0.00    -0.252 N 
ATOM      3  C   UNL     1      21.978  31.272  -0.843  1.00  0.00     0.070 C 
ATOM      4  C   UNL     1      22.365  32.666  -0.486  1.00  0.00     0.080 A 
ATOM      5  C   UNL     1      22.375  33.753  -1.330  1.00  0.00     0.134 A 
ATOM      6  N   UNL     1      22.769  33.092   0.724  1.00  0.00    -0.136 NA
ATOM      7  N   UNL     1      23.019  34.387   0.632  1.00  0.00    -0.067 NA
ENDBRANCH   1   2
BRANCH   1   8
ATOM      8  C   UNL     1      24.052  36.145  -2.107  1.00  0.00     0.086 C 
BRANCH   8   9
ATOM      9  C   UNL     1      24.598  37.536  -2.354  1.00  0.00     0.251 C 
ATOM     10  O   UNL     1      25.075  37.700  -3.630  1.00  0.00    -0.350 OA
ATOM     11  O   UNL     1      25.589  37.881  -1.468  1.00  0.00    -0.350 OA
ATOM     12  C   UNL     1      26.378  38.133  -3.560  1.00  0.00     0.192 C 
ATOM     13  C   UNL     1      26.789  37.687  -2.171  1.00  0.00     0.192 C 
ENDBRANCH   8   9
ENDBRANCH   1   8
TORSDOF 3
BEGIN_RES LYS A 135
REMARK  4 active torsions:
REMARK  status: ('A' for Active; 'I' for Inactive)
REMARK    1  A    between atoms: CA   and  CB  
REMARK    2  A    between atoms: CB   and  CG  
REMARK    3  A    between atoms: CG   and  CD  
REMARK    4  A    between atoms: CD   and  CE  
ROOT
ATOM      1  CA  LYS A 135      33.193  34.663   9.290  1.00 25.02     0.186 C 
ENDROOT
BRANCH   1   2
ATOM      2  CB  LYS A 135      32.060  35.360  10.034  1.00 26.63     0.034 C 
BRANCH   2   3
ATOM      3  CG  LYS A 135      30.701  34.776   9.746  1.00 29.45     0.005 C 
BRANCH   3   4
ATOM      4  CD  LYS A 135      30.527  34.531   8.256  1.00 32.00     0.041 C 
BRANCH   4   5
ATOM      5  CE  LYS A 135      29.121  34.894   7.817  1.00 34.25     0.338 C 
ATOM      6  NZ  LYS A 135      29.059  36.296   7.320  1.00 35.99     0.618 N 
ENDBRANCH   4   5
ENDBRANCH   3   4
ENDBRANCH   2   3
ENDBRANCH   1   2
END_RES LYS A 135
BEGIN_RES TYR A 136
REMARK  2 active torsions:
REMARK  status: ('A' for Active; 'I' for Inactive)
REMARK    5  A    between atoms: CA   and  CB  
REMARK    6  A    between atoms: CB   and  CG  
ROOT
ATOM      7  CA  TYR A 136      36.583  36.399   8.994  1.00 26.14     0.191 C 
ENDROOT
BRANCH   7   8
ATOM      8  CB  TYR A 136      37.367  36.835  10.240  1.00 28.16     0.060 C 
BRANCH   8   9
ATOM      9  CG  TYR A 136      37.210  38.306  10.539  1.00 31.88    -0.020 A 
ATOM     10  CD2 TYR A 136      37.784  38.877  11.677  1.00 32.67    -0.002 A 
ATOM     11  CE2 TYR A 136      37.631  40.244  11.946  1.00 33.89     0.027 A 
ATOM     12  CZ  TYR A 136      36.897  41.047  11.069  1.00 34.34     0.131 A 
ATOM     13  OH  TYR A 136      36.739  42.404  11.312  1.00 35.14    -0.190 OA
ATOM     14  CE1 TYR A 136      36.320  40.495   9.934  1.00 35.01     0.027 A 
ATOM     15  CD1 TYR A 136      36.474  39.131   9.680  1.00 33.57    -0.002 A 
ENDBRANCH   8   9
ENDBRANCH   7   8
END_RES TYR A 136
BEGIN_RES ASN A 133
REMARK  2 active torsions:
REMARK  status: ('A' for Active; 'I' for Inactive)
REMARK    7  A    between atoms: CA   and  CB  
REMARK    8  A    between atoms: CB   and  CG  
ROOT
ATOM     16  CA  ASN A 133      31.225  30.257  11.749  1.00 18.15     0.196 C 
ENDROOT
BRANCH  16  17
ATOM     17  CB  ASN A 133      30.092  31.240  11.460  1.00 18.27     0.126 C 
BRANCH  17  18
ATOM     18  CG  ASN A 133      28.749  30.584  11.365  1.00 18.94     0.276 C 
ATOM     19  OD1 ASN A 133      28.568  29.602  10.642  1.00 18.09    -0.269 OA
ATOM     20  ND2 ASN A 133      27.782  31.128  12.102  1.00 18.93    -0.107 N 
ENDBRANCH  17  18
ENDBRANCH  16  17
END_RES ASN A 133
