REMARK VINA RESULT:    -3.515      7.722      9.728
REMARK INTER + INTRA:          -7.574
REMARK INTER:                  -4.115
REMARK INTRA:                  -3.459
REMARK UNBOUND:                -3.545
REMARK SMILES Cc1cn(-c2ccc(O)c([N+](=O)[O-])c2)nn1
REMARK SMILES IDX 5 1 6 2 7 3 8 4 10 5 14 6 4 7 1 8 2 9 3 10 16 11 15 12 11 13
REMARK SMILES IDX 12 14 13 15 9 16
REMARK H PARENT 9 17
REMARK Flexibility Score: inf
ROOT
ATOM      1  C   UNL     1      37.073  39.081   1.348  1.00  0.00     0.073 A 
ATOM      2  C   UNL     1      38.065  38.135   1.198  1.00  0.00     0.033 A 
ATOM      3  C   UNL     1      38.458  37.358   2.268  1.00  0.00     0.056 A 
ATOM      4  C   UNL     1      37.850  37.541   3.469  1.00  0.00     0.194 A 
ATOM      5  C   UNL     1      36.854  38.477   3.657  1.00  0.00     0.312 A 
ATOM      6  C   UNL     1      36.487  39.236   2.565  1.00  0.00     0.118 A 
ENDROOT
BRANCH   1   7
ATOM      7  N   UNL     1      36.705  39.863   0.196  1.00  0.00    -0.220 N 
ATOM      8  C   UNL     1      34.392  41.737  -1.962  1.00  0.00     0.070 C 
ATOM      9  C   UNL     1      35.507  41.040  -1.268  1.00  0.00     0.080 A 
ATOM     10  C   UNL     1      35.476  40.338  -0.080  1.00  0.00     0.140 A 
ATOM     11  N   UNL     1      36.785  40.965  -1.683  1.00  0.00    -0.135 NA
ATOM     12  N   UNL     1      37.481  40.258  -0.793  1.00  0.00    -0.062 NA
ENDBRANCH   1   7
BRANCH   5  13
ATOM     13  N   UNL     1      36.238  38.637   4.945  1.00  0.00     0.066 N 
ATOM     14  O   UNL     1      35.031  38.394   5.145  1.00  0.00    -0.258 OA
ATOM     15  O   UNL     1      37.051  39.074   5.962  1.00  0.00    -0.258 OA
ENDBRANCH   5  13
BRANCH   4  16
ATOM     16  O   UNL     1      38.228  36.776   4.545  1.00  0.00    -0.502 OA
ATOM     17  H   UNL     1      39.178  36.480   4.722  1.00  0.00     0.293 HD
ENDBRANCH   4  16
TORSDOF 3
BEGIN_RES LYS A 135
REMARK  4 active torsions:
REMARK  status: ('A' for Active; 'I' for Inactive)
REMARK    1  A    between atoms: CA   and  CB  
REMARK    2  A    between atoms: CB   and  CG  
REMARK    3  A    between atoms: CG   and  CD  
REMARK    4  A    between atoms: CD   and  CE  
ROOT
ATOM      1  CA  LYS A 135      33.193  34.663   9.290  1.00 25.02     0.186 C 
ENDROOT
BRANCH   1   2
ATOM      2  CB  LYS A 135      32.060  35.360  10.034  1.00 26.63     0.034 C 
BRANCH   2   3
ATOM      3  CG  LYS A 135      30.838  35.597   9.185  1.00 29.45     0.005 C 
BRANCH   3   4
ATOM      4  CD  LYS A 135      30.320  34.286   8.612  1.00 32.00     0.041 C 
BRANCH   4   5
ATOM      5  CE  LYS A 135      28.923  33.995   9.126  1.00 34.25     0.338 C 
ATOM      6  NZ  LYS A 135      27.892  34.665   8.286  1.00 35.99     0.618 N 
ENDBRANCH   4   5
ENDBRANCH   3   4
ENDBRANCH   2   3
ENDBRANCH   1   2
END_RES LYS A 135
BEGIN_RES TYR A 136
REMARK  2 active torsions:
REMARK  status: ('A' for Active; 'I' for Inactive)
REMARK    5  A    between atoms: CA   and  CB  
REMARK    6  A    between atoms: CB   and  CG  
ROOT
ATOM      7  CA  TYR A 136      36.583  36.399   8.994  1.00 26.14     0.191 C 
ENDROOT
BRANCH   7   8
ATOM      8  CB  TYR A 136      37.367  36.835  10.240  1.00 28.16     0.060 C 
BRANCH   8   9
ATOM      9  CG  TYR A 136      37.192  38.301  10.552  1.00 31.88    -0.020 A 
ATOM     10  CD2 TYR A 136      37.267  38.775  11.863  1.00 32.67    -0.002 A 
ATOM     11  CE2 TYR A 136      37.101  40.139  12.143  1.00 33.89     0.027 A 
ATOM     12  CZ  TYR A 136      36.859  41.036  11.100  1.00 34.34     0.131 A 
ATOM     13  OH  TYR A 136      36.699  42.391  11.352  1.00 35.14    -0.190 OA
ATOM     14  CE1 TYR A 136      36.781  40.582   9.791  1.00 35.01     0.027 A 
ATOM     15  CD1 TYR A 136      36.941  39.221   9.526  1.00 33.57    -0.002 A 
ENDBRANCH   8   9
ENDBRANCH   7   8
END_RES TYR A 136
BEGIN_RES ASN A 133
REMARK  2 active torsions:
REMARK  status: ('A' for Active; 'I' for Inactive)
REMARK    7  A    between atoms: CA   and  CB  
REMARK    8  A    between atoms: CB   and  CG  
ROOT
ATOM     16  CA  ASN A 133      31.225  30.257  11.749  1.00 18.15     0.196 C 
ENDROOT
BRANCH  16  17
ATOM     17  CB  ASN A 133      30.092  31.240  11.460  1.00 18.27     0.126 C 
BRANCH  17  18
ATOM     18  CG  ASN A 133      28.757  30.578  11.317  1.00 18.94     0.276 C 
ATOM     19  OD1 ASN A 133      28.602  29.608  10.573  1.00 18.09    -0.269 OA
ATOM     20  ND2 ASN A 133      27.765  31.104  12.035  1.00 18.93    -0.107 N 
ENDBRANCH  17  18
ENDBRANCH  16  17
END_RES ASN A 133
