REMARK VINA RESULT:    -3.042      9.527     15.923
REMARK INTER + INTRA:          -7.017
REMARK INTER:                  -3.734
REMARK INTRA:                  -3.283
REMARK UNBOUND:                -3.264
REMARK SMILES Cc1cn(CCNS(C)(=O)=O)nn1
REMARK SMILES IDX 6 1 5 2 4 3 1 4 2 5 3 6 13 7 12 8 7 9 8 11 10 12 11 13 9 14
REMARK H PARENT 7 10
REMARK Flexibility Score: inf
ROOT
ATOM      1  C   UNL     1      28.085  27.664  20.803  1.00  0.00     0.122 C 
ENDROOT
BRANCH   1   2
ATOM      2  C   UNL     1      27.056  27.863  19.685  1.00  0.00     0.162 C 
BRANCH   2   3
ATOM      3  N   UNL     1      27.602  28.907  18.806  1.00  0.00    -0.251 N 
ATOM      4  C   UNL     1      27.960  30.717  15.651  1.00  0.00     0.070 C 
ATOM      5  C   UNL     1      28.009  30.173  17.039  1.00  0.00     0.080 A 
ATOM      6  C   UNL     1      27.293  29.098  17.514  1.00  0.00     0.134 A 
ATOM      7  N   UNL     1      28.741  30.603  18.080  1.00  0.00    -0.136 NA
ATOM      8  N   UNL     1      28.483  29.836  19.122  1.00  0.00    -0.067 NA
ENDBRANCH   2   3
ENDBRANCH   1   2
BRANCH   1   9
ATOM      9  N   UNL     1      29.267  27.082  20.237  1.00  0.00    -0.214 NA
ATOM     10  H   UNL     1      29.420  27.367  19.263  1.00  0.00     0.141 HD
BRANCH   9  11
ATOM     11  S   UNL     1      30.630  27.373  21.238  1.00  0.00     0.208 S 
ATOM     12  O   UNL     1      31.900  27.081  20.496  1.00  0.00    -0.213 OA
ATOM     13  O   UNL     1      30.546  26.447  22.439  1.00  0.00    -0.213 OA
ATOM     14  C   UNL     1      30.580  29.027  21.828  1.00  0.00     0.176 C 
ENDBRANCH   9  11
ENDBRANCH   1   9
TORSDOF 4
BEGIN_RES LYS A 135
REMARK  4 active torsions:
REMARK  status: ('A' for Active; 'I' for Inactive)
REMARK    1  A    between atoms: CA   and  CB  
REMARK    2  A    between atoms: CB   and  CG  
REMARK    3  A    between atoms: CG   and  CD  
REMARK    4  A    between atoms: CD   and  CE  
ROOT
ATOM      1  CA  LYS A 135      33.193  34.663   9.290  1.00 25.02     0.186 C 
ENDROOT
BRANCH   1   2
ATOM      2  CB  LYS A 135      32.060  35.360  10.034  1.00 26.63     0.034 C 
BRANCH   2   3
ATOM      3  CG  LYS A 135      30.732  34.660   9.902  1.00 29.45     0.005 C 
BRANCH   3   4
ATOM      4  CD  LYS A 135      30.191  34.797   8.487  1.00 32.00     0.041 C 
BRANCH   4   5
ATOM      5  CE  LYS A 135      28.718  34.438   8.443  1.00 34.25     0.338 C 
ATOM      6  NZ  LYS A 135      27.993  35.273   7.446  1.00 35.99     0.618 N 
ENDBRANCH   4   5
ENDBRANCH   3   4
ENDBRANCH   2   3
ENDBRANCH   1   2
END_RES LYS A 135
BEGIN_RES TYR A 136
REMARK  2 active torsions:
REMARK  status: ('A' for Active; 'I' for Inactive)
REMARK    5  A    between atoms: CA   and  CB  
REMARK    6  A    between atoms: CB   and  CG  
ROOT
ATOM      7  CA  TYR A 136      36.583  36.399   8.994  1.00 26.14     0.191 C 
ENDROOT
BRANCH   7   8
ATOM      8  CB  TYR A 136      37.367  36.835  10.240  1.00 28.16     0.060 C 
BRANCH   8   9
ATOM      9  CG  TYR A 136      37.161  38.292  10.575  1.00 31.88    -0.020 A 
ATOM     10  CD2 TYR A 136      37.303  38.760  11.883  1.00 32.67    -0.002 A 
ATOM     11  CE2 TYR A 136      37.107  40.115  12.184  1.00 33.89     0.027 A 
ATOM     12  CZ  TYR A 136      36.766  41.009  11.167  1.00 34.34     0.131 A 
ATOM     13  OH  TYR A 136      36.575  42.357  11.440  1.00 35.14    -0.190 OA
ATOM     14  CE1 TYR A 136      36.620  40.561   9.862  1.00 35.01     0.027 A 
ATOM     15  CD1 TYR A 136      36.811  39.208   9.575  1.00 33.57    -0.002 A 
ENDBRANCH   8   9
ENDBRANCH   7   8
END_RES TYR A 136
BEGIN_RES ASN A 133
REMARK  2 active torsions:
REMARK  status: ('A' for Active; 'I' for Inactive)
REMARK    7  A    between atoms: CA   and  CB  
REMARK    8  A    between atoms: CB   and  CG  
ROOT
ATOM     16  CA  ASN A 133      31.225  30.257  11.749  1.00 18.15     0.196 C 
ENDROOT
BRANCH  16  17
ATOM     17  CB  ASN A 133      30.092  31.240  11.460  1.00 18.27     0.126 C 
BRANCH  17  18
ATOM     18  CG  ASN A 133      28.752  30.582  11.348  1.00 18.94     0.276 C 
ATOM     19  OD1 ASN A 133      28.594  29.567  10.666  1.00 18.09    -0.269 OA
ATOM     20  ND2 ASN A 133      27.760  31.161  12.023  1.00 18.93    -0.107 N 
ENDBRANCH  17  18
ENDBRANCH  16  17
END_RES ASN A 133
