REMARK VINA RESULT:    -4.265      8.281     14.749
REMARK INTER + INTRA:          -7.852
REMARK INTER:                  -4.721
REMARK INTRA:                  -3.131
REMARK UNBOUND:                -3.213
REMARK SMILES Cc1cn(-c2nc(C)nc(N)n2)nn1
REMARK SMILES IDX 5 1 12 2 10 3 9 4 7 5 8 6 6 7 4 8 1 9 2 10 3 11 14 12 13 13
REMARK SMILES IDX 11 14
REMARK H PARENT 11 15 11 16
REMARK Flexibility Score: inf
ROOT
ATOM      1  C   UNL     1      36.297  34.702  13.728  1.00  0.00     0.257 A 
ATOM      2  N   UNL     1      35.180  34.561  13.013  1.00  0.00    -0.175 NA
ATOM      3  C   UNL     1      34.043  35.125  13.434  1.00  0.00     0.225 A 
ATOM      4  N   UNL     1      34.032  35.834  14.577  1.00  0.00    -0.198 NA
ATOM      5  C   UNL     1      35.153  35.986  15.311  1.00  0.00     0.133 A 
ATOM      6  C   UNL     1      35.143  36.772  16.581  1.00  0.00     0.090 C 
ATOM      7  N   UNL     1      36.270  35.407  14.857  1.00  0.00    -0.196 NA
ENDROOT
BRANCH   1   8
ATOM      8  N   UNL     1      37.499  34.098  13.271  1.00  0.00    -0.185 N 
ATOM      9  C   UNL     1      41.077  33.813  12.596  1.00  0.00     0.070 C 
ATOM     10  C   UNL     1      39.617  33.683  12.760  1.00  0.00     0.080 A 
ATOM     11  C   UNL     1      38.753  34.599  13.306  1.00  0.00     0.144 A 
ATOM     12  N   UNL     1      38.869  32.639  12.401  1.00  0.00    -0.135 NA
ATOM     13  N   UNL     1      37.614  32.913  12.716  1.00  0.00    -0.059 NA
ENDBRANCH   1   8
BRANCH   3  14
ATOM     14  N   UNL     1      32.886  34.940  12.632  1.00  0.00    -0.368 N 
ATOM     15  H   UNL     1      32.286  34.099  12.761  1.00  0.00     0.159 HD
ATOM     16  H   UNL     1      32.615  35.633  11.906  1.00  0.00     0.159 HD
ENDBRANCH   3  14
TORSDOF 2
BEGIN_RES LYS A 135
REMARK  4 active torsions:
REMARK  status: ('A' for Active; 'I' for Inactive)
REMARK    1  A    between atoms: CA   and  CB  
REMARK    2  A    between atoms: CB   and  CG  
REMARK    3  A    between atoms: CG   and  CD  
REMARK    4  A    between atoms: CD   and  CE  
ROOT
ATOM      1  CA  LYS A 135      33.193  34.663   9.290  1.00 25.02     0.186 C 
ENDROOT
BRANCH   1   2
ATOM      2  CB  LYS A 135      32.060  35.360  10.034  1.00 26.63     0.034 C 
BRANCH   2   3
ATOM      3  CG  LYS A 135      30.804  35.510   9.215  1.00 29.45     0.005 C 
BRANCH   3   4
ATOM      4  CD  LYS A 135      30.122  34.163   9.027  1.00 32.00     0.041 C 
BRANCH   4   5
ATOM      5  CE  LYS A 135      28.667  34.352   8.645  1.00 34.25     0.338 C 
ATOM      6  NZ  LYS A 135      27.765  33.679   9.620  1.00 35.99     0.618 N 
ENDBRANCH   4   5
ENDBRANCH   3   4
ENDBRANCH   2   3
ENDBRANCH   1   2
END_RES LYS A 135
BEGIN_RES TYR A 136
REMARK  2 active torsions:
REMARK  status: ('A' for Active; 'I' for Inactive)
REMARK    5  A    between atoms: CA   and  CB  
REMARK    6  A    between atoms: CB   and  CG  
ROOT
ATOM      7  CA  TYR A 136      36.583  36.399   8.994  1.00 26.14     0.191 C 
ENDROOT
BRANCH   7   8
ATOM      8  CB  TYR A 136      37.367  36.835  10.240  1.00 28.16     0.060 C 
BRANCH   8   9
ATOM      9  CG  TYR A 136      36.743  38.022  10.932  1.00 31.88    -0.020 A 
ATOM     10  CD2 TYR A 136      36.304  39.133  10.209  1.00 32.67    -0.002 A 
ATOM     11  CE2 TYR A 136      35.728  40.231  10.862  1.00 33.89     0.027 A 
ATOM     12  CZ  TYR A 136      35.589  40.217  12.252  1.00 34.34     0.131 A 
ATOM     13  OH  TYR A 136      35.014  41.290  12.919  1.00 35.14    -0.190 OA
ATOM     14  CE1 TYR A 136      36.020  39.122  12.986  1.00 35.01     0.027 A 
ATOM     15  CD1 TYR A 136      36.599  38.037  12.326  1.00 33.57    -0.002 A 
ENDBRANCH   8   9
ENDBRANCH   7   8
END_RES TYR A 136
BEGIN_RES ASN A 133
REMARK  2 active torsions:
REMARK  status: ('A' for Active; 'I' for Inactive)
REMARK    7  A    between atoms: CA   and  CB  
REMARK    8  A    between atoms: CB   and  CG  
ROOT
ATOM     16  CA  ASN A 133      31.225  30.257  11.749  1.00 18.15     0.196 C 
ENDROOT
BRANCH  16  17
ATOM     17  CB  ASN A 133      30.092  31.240  11.460  1.00 18.27     0.126 C 
BRANCH  17  18
ATOM     18  CG  ASN A 133      28.750  30.583  11.360  1.00 18.94     0.276 C 
ATOM     19  OD1 ASN A 133      28.567  29.615  10.621  1.00 18.09    -0.269 OA
ATOM     20  ND2 ASN A 133      27.786  31.111  12.113  1.00 18.93    -0.107 N 
ENDBRANCH  17  18
ENDBRANCH  16  17
END_RES ASN A 133
