REMARK VINA RESULT:    -3.862      1.838      2.447
REMARK INTER + INTRA:          -9.817
REMARK INTER:                  -5.941
REMARK INTRA:                  -3.876
REMARK UNBOUND:                -4.262
REMARK SMILES Cc1cn(CC(=O)NCC(O)Cn2ccnc2[N+](=O)[O-])nn1
REMARK SMILES IDX 9 1 8 2 6 3 7 4 5 6 4 7 1 8 2 9 3 10 22 11 21 12 10 13 11 14
REMARK SMILES IDX 12 16 13 17 14 18 17 19 15 20 16 21 18 22 19 23 20 24
REMARK H PARENT 8 5 11 15
REMARK Flexibility Score: inf
ROOT
ATOM      1  C   UNL     1      33.148  35.890  12.533  1.00  0.00     0.151 C 
ENDROOT
BRANCH   1   2
ATOM      2  N   UNL     1      32.116  34.909  12.766  1.00  0.00    -0.352 N 
ATOM      3  C   UNL     1      31.174  34.938  13.828  1.00  0.00     0.241 C 
ATOM      4  O   UNL     1      31.202  35.881  14.647  1.00  0.00    -0.273 OA
ATOM      5  H   UNL     1      32.060  34.089  12.078  1.00  0.00     0.163 HD
BRANCH   3   6
ATOM      6  C   UNL     1      30.184  33.828  13.914  1.00  0.00     0.245 C 
BRANCH   6   7
ATOM      7  N   UNL     1      28.989  34.150  13.186  1.00  0.00    -0.243 N 
ATOM      8  C   UNL     1      25.443  34.787  12.585  1.00  0.00     0.070 C 
ATOM      9  C   UNL     1      26.922  34.573  12.580  1.00  0.00     0.080 A 
ATOM     10  C   UNL     1      27.726  34.242  13.637  1.00  0.00     0.134 A 
ATOM     11  N   UNL     1      27.716  34.677  11.501  1.00  0.00    -0.136 NA
ATOM     12  N   UNL     1      28.957  34.418  11.890  1.00  0.00    -0.067 NA
ENDBRANCH   6   7
ENDBRANCH   3   6
ENDBRANCH   1   2
BRANCH   1  13
ATOM     13  C   UNL     1      34.499  35.508  12.988  1.00  0.00     0.168 C 
BRANCH  13  14
ATOM     14  O   UNL     1      35.020  34.346  12.406  1.00  0.00    -0.388 OA
ATOM     15  H   UNL     1      34.456  33.571  12.545  1.00  0.00     0.211 HD
ENDBRANCH  13  14
BRANCH  13  16
ATOM     16  C   UNL     1      34.717  35.396  14.468  1.00  0.00     0.239 C 
BRANCH  16  17
ATOM     17  N   UNL     1      35.764  36.209  15.006  1.00  0.00    -0.227 N 
ATOM     18  C   UNL     1      35.583  37.431  15.614  1.00  0.00     0.204 A 
ATOM     19  C   UNL     1      37.069  35.920  14.948  1.00  0.00     0.434 A 
ATOM     20  C   UNL     1      36.834  37.892  15.933  1.00  0.00     0.245 A 
ATOM     21  N   UNL     1      37.720  36.990  15.535  1.00  0.00    -0.074 NA
BRANCH  19  22
ATOM     22  N   UNL     1      37.767  34.784  14.446  1.00  0.00    -0.047 N 
ATOM     23  O   UNL     1      37.974  34.591  13.249  1.00  0.00    -0.390 OA
ATOM     24  O   UNL     1      38.224  33.821  15.310  1.00  0.00    -0.390 OA
ENDBRANCH  19  22
ENDBRANCH  16  17
ENDBRANCH  13  16
ENDBRANCH   1  13
TORSDOF 8
BEGIN_RES LYS A 135
REMARK  4 active torsions:
REMARK  status: ('A' for Active; 'I' for Inactive)
REMARK    1  A    between atoms: CA   and  CB  
REMARK    2  A    between atoms: CB   and  CG  
REMARK    3  A    between atoms: CG   and  CD  
REMARK    4  A    between atoms: CD   and  CE  
ROOT
ATOM      1  CA  LYS A 135      33.193  34.663   9.290  1.00 25.02     0.186 C 
ENDROOT
BRANCH   1   2
ATOM      2  CB  LYS A 135      32.060  35.360  10.034  1.00 26.63     0.034 C 
BRANCH   2   3
ATOM      3  CG  LYS A 135      30.863  35.656   9.168  1.00 29.45     0.005 C 
BRANCH   3   4
ATOM      4  CD  LYS A 135      30.304  34.375   8.569  1.00 32.00     0.041 C 
BRANCH   4   5
ATOM      5  CE  LYS A 135      28.916  34.612   8.004  1.00 34.25     0.338 C 
ATOM      6  NZ  LYS A 135      28.744  36.030   7.583  1.00 35.99     0.618 N 
ENDBRANCH   4   5
ENDBRANCH   3   4
ENDBRANCH   2   3
ENDBRANCH   1   2
END_RES LYS A 135
BEGIN_RES TYR A 136
REMARK  2 active torsions:
REMARK  status: ('A' for Active; 'I' for Inactive)
REMARK    5  A    between atoms: CA   and  CB  
REMARK    6  A    between atoms: CB   and  CG  
ROOT
ATOM      7  CA  TYR A 136      36.583  36.399   8.994  1.00 26.14     0.191 C 
ENDROOT
BRANCH   7   8
ATOM      8  CB  TYR A 136      37.367  36.835  10.240  1.00 28.16     0.060 C 
BRANCH   8   9
ATOM      9  CG  TYR A 136      36.890  38.155  10.793  1.00 31.88    -0.020 A 
ATOM     10  CD2 TYR A 136      36.936  38.424  12.163  1.00 32.67    -0.002 A 
ATOM     11  CE2 TYR A 136      36.488  39.653  12.667  1.00 33.89     0.027 A 
ATOM     12  CZ  TYR A 136      35.990  40.622  11.792  1.00 34.34     0.131 A 
ATOM     13  OH  TYR A 136      35.548  41.848  12.268  1.00 35.14    -0.190 OA
ATOM     14  CE1 TYR A 136      35.936  40.371  10.429  1.00 35.01     0.027 A 
ATOM     15  CD1 TYR A 136      36.378  39.141   9.939  1.00 33.57    -0.002 A 
ENDBRANCH   8   9
ENDBRANCH   7   8
END_RES TYR A 136
BEGIN_RES ASN A 133
REMARK  2 active torsions:
REMARK  status: ('A' for Active; 'I' for Inactive)
REMARK    7  A    between atoms: CA   and  CB  
REMARK    8  A    between atoms: CB   and  CG  
ROOT
ATOM     16  CA  ASN A 133      31.225  30.257  11.749  1.00 18.15     0.196 C 
ENDROOT
BRANCH  16  17
ATOM     17  CB  ASN A 133      30.092  31.240  11.460  1.00 18.27     0.126 C 
BRANCH  17  18
ATOM     18  CG  ASN A 133      28.756  30.578  11.317  1.00 18.94     0.276 C 
ATOM     19  OD1 ASN A 133      28.595  29.626  10.552  1.00 18.09    -0.269 OA
ATOM     20  ND2 ASN A 133      27.773  31.084  12.061  1.00 18.93    -0.107 N 
ENDBRANCH  17  18
ENDBRANCH  16  17
END_RES ASN A 133
