REMARK VINA RESULT:    -4.019      6.994      9.700
REMARK INTER + INTRA:          -7.147
REMARK INTER:                  -4.087
REMARK INTRA:                  -3.059
REMARK UNBOUND:                -2.892
REMARK SMILES Cc1cn(-c2ccc3[nH]ncc3c2)nn1
REMARK SMILES IDX 5 1 6 2 7 3 8 4 9 5 10 6 11 7 12 8 13 9 4 11 1 12 2 13 3 14
REMARK SMILES IDX 15 15 14 16
REMARK H PARENT 9 10
REMARK Flexibility Score: inf
ROOT
ATOM      1  C   UNL     1      35.717  39.050   2.727  1.00  0.00     0.067 A 
ATOM      2  C   UNL     1      36.370  37.838   2.829  1.00  0.00     0.030 A 
ATOM      3  C   UNL     1      37.324  37.499   1.896  1.00  0.00     0.030 A 
ATOM      4  C   UNL     1      37.669  38.330   0.837  1.00  0.00     0.065 A 
ATOM      5  N   UNL     1      38.530  38.261  -0.185  1.00  0.00    -0.278 N 
ATOM      6  N   UNL     1      38.457  39.349  -0.918  1.00  0.00    -0.183 NA
ATOM      7  C   UNL     1      37.531  40.165  -0.381  1.00  0.00     0.143 A 
ATOM      8  C   UNL     1      37.005  39.552   0.738  1.00  0.00     0.022 A 
ATOM      9  C   UNL     1      36.048  39.893   1.675  1.00  0.00     0.040 A 
ATOM     10  H   UNL     1      39.163  37.463  -0.370  1.00  0.00     0.190 HD
ENDROOT
BRANCH   1  11
ATOM     11  N   UNL     1      34.733  39.385   3.699  1.00  0.00    -0.220 N 
ATOM     12  C   UNL     1      33.113  39.761   6.954  1.00  0.00     0.070 C 
ATOM     13  C   UNL     1      33.557  39.712   5.549  1.00  0.00     0.080 A 
ATOM     14  C   UNL     1      34.744  39.238   5.028  1.00  0.00     0.140 A 
ATOM     15  N   UNL     1      32.852  40.140   4.479  1.00  0.00    -0.135 NA
ATOM     16  N   UNL     1      33.574  39.936   3.372  1.00  0.00    -0.062 NA
ENDBRANCH   1  11
TORSDOF 1
BEGIN_RES LYS A 135
REMARK  4 active torsions:
REMARK  status: ('A' for Active; 'I' for Inactive)
REMARK    1  A    between atoms: CA   and  CB  
REMARK    2  A    between atoms: CB   and  CG  
REMARK    3  A    between atoms: CG   and  CD  
REMARK    4  A    between atoms: CD   and  CE  
ROOT
ATOM      1  CA  LYS A 135      33.193  34.663   9.290  1.00 25.02     0.186 C 
ENDROOT
BRANCH   1   2
ATOM      2  CB  LYS A 135      32.060  35.360  10.034  1.00 26.63     0.034 C 
BRANCH   2   3
ATOM      3  CG  LYS A 135      30.707  34.746   9.783  1.00 29.45     0.005 C 
BRANCH   3   4
ATOM      4  CD  LYS A 135      30.407  34.697   8.293  1.00 32.00     0.041 C 
BRANCH   4   5
ATOM      5  CE  LYS A 135      29.238  35.601   7.955  1.00 34.25     0.338 C 
ATOM      6  NZ  LYS A 135      28.920  35.547   6.501  1.00 35.99     0.618 N 
ENDBRANCH   4   5
ENDBRANCH   3   4
ENDBRANCH   2   3
ENDBRANCH   1   2
END_RES LYS A 135
BEGIN_RES TYR A 136
REMARK  2 active torsions:
REMARK  status: ('A' for Active; 'I' for Inactive)
REMARK    5  A    between atoms: CA   and  CB  
REMARK    6  A    between atoms: CB   and  CG  
ROOT
ATOM      7  CA  TYR A 136      36.583  36.399   8.994  1.00 26.14     0.191 C 
ENDROOT
BRANCH   7   8
ATOM      8  CB  TYR A 136      37.367  36.835  10.240  1.00 28.16     0.060 C 
BRANCH   8   9
ATOM      9  CG  TYR A 136      37.162  38.292  10.574  1.00 31.88    -0.020 A 
ATOM     10  CD2 TYR A 136      36.366  39.113   9.772  1.00 32.67    -0.002 A 
ATOM     11  CE2 TYR A 136      36.183  40.466  10.090  1.00 33.89     0.027 A 
ATOM     12  CZ  TYR A 136      36.803  41.002  11.222  1.00 34.34     0.131 A 
ATOM     13  OH  TYR A 136      36.630  42.337  11.560  1.00 35.14    -0.190 OA
ATOM     14  CE1 TYR A 136      37.598  40.201  12.029  1.00 35.01     0.027 A 
ATOM     15  CD1 TYR A 136      37.778  38.857  11.698  1.00 33.57    -0.002 A 
ENDBRANCH   8   9
ENDBRANCH   7   8
END_RES TYR A 136
BEGIN_RES ASN A 133
REMARK  2 active torsions:
REMARK  status: ('A' for Active; 'I' for Inactive)
REMARK    7  A    between atoms: CA   and  CB  
REMARK    8  A    between atoms: CB   and  CG  
ROOT
ATOM     16  CA  ASN A 133      31.225  30.257  11.749  1.00 18.15     0.196 C 
ENDROOT
BRANCH  16  17
ATOM     17  CB  ASN A 133      30.092  31.240  11.460  1.00 18.27     0.126 C 
BRANCH  17  18
ATOM     18  CG  ASN A 133      28.756  30.579  11.322  1.00 18.94     0.276 C 
ATOM     19  OD1 ASN A 133      28.596  29.614  10.572  1.00 18.09    -0.269 OA
ATOM     20  ND2 ASN A 133      27.770  31.099  12.052  1.00 18.93    -0.107 N 
ENDBRANCH  17  18
ENDBRANCH  16  17
END_RES ASN A 133
