REMARK VINA RESULT:    -3.917      2.954      4.630
REMARK INTER + INTRA:          -7.620
REMARK INTER:                  -4.529
REMARK INTRA:                  -3.091
REMARK UNBOUND:                -3.245
REMARK SMILES Cc1cn(CC2=CC[C@H]3C[C@@H]2C3(C)C)nn1
REMARK SMILES IDX 5 1 4 2 1 3 2 4 3 5 16 6 15 7 6 8 7 9 11 10 8 11 10 12 12 13
REMARK SMILES IDX 9 14 13 15 14 16
REMARK H PARENT
REMARK Flexibility Score: inf
ROOT
ATOM      1  C   UNL     1      30.065  34.047  13.312  1.00  0.00     0.177 C 
ENDROOT
BRANCH   1   2
ATOM      2  N   UNL     1      29.363  33.291  14.324  1.00  0.00    -0.248 N 
ATOM      3  C   UNL     1      26.589  32.498  16.588  1.00  0.00     0.070 C 
ATOM      4  C   UNL     1      27.829  32.593  15.780  1.00  0.00     0.080 A 
ATOM      5  C   UNL     1      28.146  33.566  14.823  1.00  0.00     0.134 A 
ATOM      6  N   UNL     1      28.901  31.778  15.794  1.00  0.00    -0.136 NA
ATOM      7  N   UNL     1      29.809  32.203  14.924  1.00  0.00    -0.067 NA
ENDBRANCH   1   2
BRANCH   1   8
ATOM      8  C   UNL     1      31.050  34.971  13.900  1.00  0.00    -0.049 C 
ATOM      9  C   UNL     1      30.795  36.226  14.226  1.00  0.00    -0.025 C 
ATOM     10  C   UNL     1      32.426  34.477  14.150  1.00  0.00     0.023 C 
ATOM     11  C   UNL     1      31.913  37.099  14.742  1.00  0.00     0.031 C 
ATOM     12  C   UNL     1      32.739  34.925  15.590  1.00  0.00     0.013 C 
ATOM     13  C   UNL     1      33.469  35.486  13.719  1.00  0.00    -0.026 C 
ATOM     14  C   UNL     1      33.139  36.266  14.958  1.00  0.00    -0.000 C 
ATOM     15  C   UNL     1      33.232  36.158  12.412  1.00  0.00     0.012 C 
ATOM     16  C   UNL     1      34.835  34.822  13.730  1.00  0.00     0.012 C 
ENDBRANCH   1   8
TORSDOF 2
BEGIN_RES LYS A 135
REMARK  4 active torsions:
REMARK  status: ('A' for Active; 'I' for Inactive)
REMARK    1  A    between atoms: CA   and  CB  
REMARK    2  A    between atoms: CB   and  CG  
REMARK    3  A    between atoms: CG   and  CD  
REMARK    4  A    between atoms: CD   and  CE  
ROOT
ATOM      1  CA  LYS A 135      33.193  34.663   9.290  1.00 25.02     0.186 C 
ENDROOT
BRANCH   1   2
ATOM      2  CB  LYS A 135      32.060  35.360  10.034  1.00 26.63     0.034 C 
BRANCH   2   3
ATOM      3  CG  LYS A 135      30.697  34.802   9.716  1.00 29.45     0.005 C 
BRANCH   3   4
ATOM      4  CD  LYS A 135      30.584  34.472   8.235  1.00 32.00     0.041 C 
BRANCH   4   5
ATOM      5  CE  LYS A 135      29.366  35.144   7.631  1.00 34.25     0.338 C 
ATOM      6  NZ  LYS A 135      28.111  34.639   8.255  1.00 35.99     0.618 N 
ENDBRANCH   4   5
ENDBRANCH   3   4
ENDBRANCH   2   3
ENDBRANCH   1   2
END_RES LYS A 135
BEGIN_RES TYR A 136
REMARK  2 active torsions:
REMARK  status: ('A' for Active; 'I' for Inactive)
REMARK    5  A    between atoms: CA   and  CB  
REMARK    6  A    between atoms: CB   and  CG  
ROOT
ATOM      7  CA  TYR A 136      36.583  36.399   8.994  1.00 26.14     0.191 C 
ENDROOT
BRANCH   7   8
ATOM      8  CB  TYR A 136      37.367  36.835  10.240  1.00 28.16     0.060 C 
BRANCH   8   9
ATOM      9  CG  TYR A 136      36.564  37.738  11.144  1.00 31.88    -0.020 A 
ATOM     10  CD2 TYR A 136      36.709  37.684  12.532  1.00 32.67    -0.002 A 
ATOM     11  CE2 TYR A 136      35.957  38.526  13.364  1.00 33.89     0.027 A 
ATOM     12  CZ  TYR A 136      35.052  39.429  12.801  1.00 34.34     0.131 A 
ATOM     13  OH  TYR A 136      34.302  40.277  13.604  1.00 35.14    -0.190 OA
ATOM     14  CE1 TYR A 136      34.895  39.494  11.424  1.00 35.01     0.027 A 
ATOM     15  CD1 TYR A 136      35.644  38.647  10.606  1.00 33.57    -0.002 A 
ENDBRANCH   8   9
ENDBRANCH   7   8
END_RES TYR A 136
BEGIN_RES ASN A 133
REMARK  2 active torsions:
REMARK  status: ('A' for Active; 'I' for Inactive)
REMARK    7  A    between atoms: CA   and  CB  
REMARK    8  A    between atoms: CB   and  CG  
ROOT
ATOM     16  CA  ASN A 133      31.225  30.257  11.749  1.00 18.15     0.196 C 
ENDROOT
BRANCH  16  17
ATOM     17  CB  ASN A 133      30.092  31.240  11.460  1.00 18.27     0.126 C 
BRANCH  17  18
ATOM     18  CG  ASN A 133      28.749  30.584  11.365  1.00 18.94     0.276 C 
ATOM     19  OD1 ASN A 133      28.565  29.611  10.632  1.00 18.09    -0.269 OA
ATOM     20  ND2 ASN A 133      27.786  31.118  12.115  1.00 18.93    -0.107 N 
ENDBRANCH  17  18
ENDBRANCH  16  17
END_RES ASN A 133
