REMARK VINA RESULT:    -4.017      3.487      5.407
REMARK INTER + INTRA:          -7.765
REMARK INTER:                  -4.692
REMARK INTRA:                  -3.073
REMARK UNBOUND:                -3.044
REMARK SMILES Cc1cn(CS(=O)(=O)c2ccccc2)nn1
REMARK SMILES IDX 5 1 4 2 1 3 2 4 3 5 16 6 15 7 6 8 7 9 8 10 9 11 10 12 14 13
REMARK SMILES IDX 11 14 13 15 12 16
REMARK H PARENT
REMARK Flexibility Score: inf
ROOT
ATOM      1  C   UNL     1      33.593  35.517  15.003  1.00  0.00     0.287 C 
ENDROOT
BRANCH   1   2
ATOM      2  N   UNL     1      32.375  34.776  14.739  1.00  0.00    -0.237 N 
ATOM      3  C   UNL     1      29.068  34.140  13.282  1.00  0.00     0.070 C 
ATOM      4  C   UNL     1      30.370  34.120  14.000  1.00  0.00     0.080 A 
ATOM      5  C   UNL     1      31.324  35.133  13.978  1.00  0.00     0.135 A 
ATOM      6  N   UNL     1      30.900  33.173  14.792  1.00  0.00    -0.136 NA
ATOM      7  N   UNL     1      32.087  33.568  15.226  1.00  0.00    -0.066 NA
ENDBRANCH   1   2
BRANCH   1   8
ATOM      8  S   UNL     1      34.625  35.626  13.570  1.00  0.00     0.198 S 
ATOM      9  O   UNL     1      33.893  36.182  12.388  1.00  0.00    -0.222 OA
ATOM     10  O   UNL     1      35.108  34.256  13.181  1.00  0.00    -0.222 OA
BRANCH   8  11
ATOM     11  C   UNL     1      36.026  36.614  13.854  1.00  0.00     0.069 A 
ATOM     12  C   UNL     1      37.314  36.138  13.663  1.00  0.00     0.020 A 
ATOM     13  C   UNL     1      35.867  37.901  14.281  1.00  0.00     0.020 A 
ATOM     14  C   UNL     1      38.411  36.933  13.892  1.00  0.00     0.001 A 
ATOM     15  C   UNL     1      36.945  38.746  14.527  1.00  0.00     0.001 A 
ATOM     16  C   UNL     1      38.213  38.247  14.328  1.00  0.00     0.000 A 
ENDBRANCH   8  11
ENDBRANCH   1   8
TORSDOF 3
BEGIN_RES LYS A 135
REMARK  4 active torsions:
REMARK  status: ('A' for Active; 'I' for Inactive)
REMARK    1  A    between atoms: CA   and  CB  
REMARK    2  A    between atoms: CB   and  CG  
REMARK    3  A    between atoms: CG   and  CD  
REMARK    4  A    between atoms: CD   and  CE  
ROOT
ATOM      1  CA  LYS A 135      33.193  34.663   9.290  1.00 25.02     0.186 C 
ENDROOT
BRANCH   1   2
ATOM      2  CB  LYS A 135      32.060  35.360  10.034  1.00 26.63     0.034 C 
BRANCH   2   3
ATOM      3  CG  LYS A 135      30.780  35.441   9.243  1.00 29.45     0.005 C 
BRANCH   3   4
ATOM      4  CD  LYS A 135      30.209  34.052   9.003  1.00 32.00     0.041 C 
BRANCH   4   5
ATOM      5  CE  LYS A 135      28.720  34.032   9.292  1.00 34.25     0.338 C 
ATOM      6  NZ  LYS A 135      27.953  34.702   8.205  1.00 35.99     0.618 N 
ENDBRANCH   4   5
ENDBRANCH   3   4
ENDBRANCH   2   3
ENDBRANCH   1   2
END_RES LYS A 135
BEGIN_RES TYR A 136
REMARK  2 active torsions:
REMARK  status: ('A' for Active; 'I' for Inactive)
REMARK    5  A    between atoms: CA   and  CB  
REMARK    6  A    between atoms: CB   and  CG  
ROOT
ATOM      7  CA  TYR A 136      36.583  36.399   8.994  1.00 26.14     0.191 C 
ENDROOT
BRANCH   7   8
ATOM      8  CB  TYR A 136      37.367  36.835  10.240  1.00 28.16     0.060 C 
BRANCH   8   9
ATOM      9  CG  TYR A 136      37.111  38.275  10.612  1.00 31.88    -0.020 A 
ATOM     10  CD2 TYR A 136      35.811  38.762  10.765  1.00 32.67    -0.002 A 
ATOM     11  CE2 TYR A 136      35.584  40.102  11.109  1.00 33.89     0.027 A 
ATOM     12  CZ  TYR A 136      36.668  40.962  11.302  1.00 34.34     0.131 A 
ATOM     13  OH  TYR A 136      36.467  42.290  11.650  1.00 35.14    -0.190 OA
ATOM     14  CE1 TYR A 136      37.966  40.495  11.153  1.00 35.01     0.027 A 
ATOM     15  CD1 TYR A 136      38.179  39.160  10.804  1.00 33.57    -0.002 A 
ENDBRANCH   8   9
ENDBRANCH   7   8
END_RES TYR A 136
BEGIN_RES ASN A 133
REMARK  2 active torsions:
REMARK  status: ('A' for Active; 'I' for Inactive)
REMARK    7  A    between atoms: CA   and  CB  
REMARK    8  A    between atoms: CB   and  CG  
ROOT
ATOM     16  CA  ASN A 133      31.225  30.257  11.749  1.00 18.15     0.196 C 
ENDROOT
BRANCH  16  17
ATOM     17  CB  ASN A 133      30.092  31.240  11.460  1.00 18.27     0.126 C 
BRANCH  17  18
ATOM     18  CG  ASN A 133      28.759  30.577  11.303  1.00 18.94     0.276 C 
ATOM     19  OD1 ASN A 133      28.614  29.603  10.562  1.00 18.09    -0.269 OA
ATOM     20  ND2 ASN A 133      27.758  31.105  12.006  1.00 18.93    -0.107 N 
ENDBRANCH  17  18
ENDBRANCH  16  17
END_RES ASN A 133
