REMARK VINA RESULT:    -3.660      7.662     13.354
REMARK INTER + INTRA:          -7.045
REMARK INTER:                  -3.908
REMARK INTRA:                  -3.136
REMARK UNBOUND:                -3.171
REMARK SMILES Cc1cn(C2CCCC2)nn1
REMARK SMILES IDX 5 1 6 2 7 3 8 4 9 5 4 6 1 7 2 8 3 9 11 10 10 11
REMARK H PARENT
REMARK Flexibility Score: inf
ROOT
ATOM      1  C   UNL     1      22.111  34.440  -0.689  1.00  0.00     0.109 C 
ATOM      2  C   UNL     1      22.667  35.371   0.388  1.00  0.00     0.027 C 
ATOM      3  C   UNL     1      22.072  36.696  -0.052  1.00  0.00     0.002 C 
ATOM      4  C   UNL     1      20.766  36.362  -0.744  1.00  0.00     0.002 C 
ATOM      5  C   UNL     1      20.671  34.832  -0.720  1.00  0.00     0.027 C 
ENDROOT
BRANCH   1   6
ATOM      6  N   UNL     1      22.312  33.045  -0.324  1.00  0.00    -0.249 N 
ATOM      7  C   UNL     1      22.257  29.431  -1.013  1.00  0.00     0.070 C 
ATOM      8  C   UNL     1      22.372  30.836  -0.481  1.00  0.00     0.080 A 
ATOM      9  C   UNL     1      22.078  32.006  -1.142  1.00  0.00     0.134 A 
ATOM     10  N   UNL     1      22.778  31.230   0.736  1.00  0.00    -0.136 NA
ATOM     11  N   UNL     1      22.736  32.543   0.813  1.00  0.00    -0.067 NA
ENDBRANCH   1   6
TORSDOF 1
BEGIN_RES LYS A 135
REMARK  4 active torsions:
REMARK  status: ('A' for Active; 'I' for Inactive)
REMARK    1  A    between atoms: CA   and  CB  
REMARK    2  A    between atoms: CB   and  CG  
REMARK    3  A    between atoms: CG   and  CD  
REMARK    4  A    between atoms: CD   and  CE  
ROOT
ATOM      1  CA  LYS A 135      33.193  34.663   9.290  1.00 25.02     0.186 C 
ENDROOT
BRANCH   1   2
ATOM      2  CB  LYS A 135      32.060  35.360  10.034  1.00 26.63     0.034 C 
BRANCH   2   3
ATOM      3  CG  LYS A 135      30.876  35.686   9.160  1.00 29.45     0.005 C 
BRANCH   3   4
ATOM      4  CD  LYS A 135      30.389  34.443   8.432  1.00 32.00     0.041 C 
BRANCH   4   5
ATOM      5  CE  LYS A 135      28.875  34.437   8.341  1.00 34.25     0.338 C 
ATOM      6  NZ  LYS A 135      28.269  33.793   9.539  1.00 35.99     0.618 N 
ENDBRANCH   4   5
ENDBRANCH   3   4
ENDBRANCH   2   3
ENDBRANCH   1   2
END_RES LYS A 135
BEGIN_RES TYR A 136
REMARK  2 active torsions:
REMARK  status: ('A' for Active; 'I' for Inactive)
REMARK    5  A    between atoms: CA   and  CB  
REMARK    6  A    between atoms: CB   and  CG  
ROOT
ATOM      7  CA  TYR A 136      36.583  36.399   8.994  1.00 26.14     0.191 C 
ENDROOT
BRANCH   7   8
ATOM      8  CB  TYR A 136      37.367  36.835  10.240  1.00 28.16     0.060 C 
BRANCH   8   9
ATOM      9  CG  TYR A 136      37.193  38.301  10.551  1.00 31.88    -0.020 A 
ATOM     10  CD2 TYR A 136      38.273  39.186  10.493  1.00 32.67    -0.002 A 
ATOM     11  CE2 TYR A 136      38.101  40.546  10.785  1.00 33.89     0.027 A 
ATOM     12  CZ  TYR A 136      36.838  41.025  11.140  1.00 34.34     0.131 A 
ATOM     13  OH  TYR A 136      36.643  42.369  11.427  1.00 35.14    -0.190 OA
ATOM     14  CE1 TYR A 136      35.755  40.160  11.204  1.00 35.01     0.027 A 
ATOM     15  CD1 TYR A 136      35.939  38.807  10.917  1.00 33.57    -0.002 A 
ENDBRANCH   8   9
ENDBRANCH   7   8
END_RES TYR A 136
BEGIN_RES ASN A 133
REMARK  2 active torsions:
REMARK  status: ('A' for Active; 'I' for Inactive)
REMARK    7  A    between atoms: CA   and  CB  
REMARK    8  A    between atoms: CB   and  CG  
ROOT
ATOM     16  CA  ASN A 133      31.225  30.257  11.749  1.00 18.15     0.196 C 
ENDROOT
BRANCH  16  17
ATOM     17  CB  ASN A 133      30.092  31.240  11.460  1.00 18.27     0.126 C 
BRANCH  17  18
ATOM     18  CG  ASN A 133      28.752  30.582  11.349  1.00 18.94     0.276 C 
ATOM     19  OD1 ASN A 133      28.580  29.603  10.620  1.00 18.09    -0.269 OA
ATOM     20  ND2 ASN A 133      27.775  31.120  12.078  1.00 18.93    -0.107 N 
ENDBRANCH  17  18
ENDBRANCH  16  17
END_RES ASN A 133
