REMARK VINA RESULT:    -4.191      2.261      3.620
REMARK INTER + INTRA:          -8.113
REMARK INTER:                  -4.728
REMARK INTRA:                  -3.385
REMARK UNBOUND:                -3.432
REMARK SMILES Cc1cn(-c2ccccc2C(C)C)nn1
REMARK SMILES IDX 5 1 10 2 9 3 8 4 7 5 6 6 4 7 1 8 2 9 3 10 15 11 14 12 11 13
REMARK SMILES IDX 12 14 13 15
REMARK H PARENT
REMARK Flexibility Score: inf
ROOT
ATOM      1  C   UNL     1      36.203  37.114  14.106  1.00  0.00     0.070 A 
ATOM      2  C   UNL     1      37.462  36.604  13.891  1.00  0.00    -0.020 A 
ATOM      3  C   UNL     1      38.573  37.430  14.022  1.00  0.00     0.006 A 
ATOM      4  C   UNL     1      38.481  38.758  14.360  1.00  0.00     0.000 A 
ATOM      5  C   UNL     1      37.217  39.273  14.576  1.00  0.00     0.002 A 
ATOM      6  C   UNL     1      36.117  38.463  14.450  1.00  0.00     0.029 A 
ENDROOT
BRANCH   1   7
ATOM      7  N   UNL     1      35.018  36.316  13.993  1.00  0.00    -0.220 N 
ATOM      8  C   UNL     1      32.315  34.111  15.123  1.00  0.00     0.070 C 
ATOM      9  C   UNL     1      33.272  34.975  14.408  1.00  0.00     0.080 A 
ATOM     10  C   UNL     1      34.385  35.621  14.954  1.00  0.00     0.140 A 
ATOM     11  N   UNL     1      33.294  35.329  13.094  1.00  0.00    -0.135 NA
ATOM     12  N   UNL     1      34.323  36.111  12.886  1.00  0.00    -0.062 NA
ENDBRANCH   1   7
BRANCH   2  13
ATOM     13  C   UNL     1      37.598  35.175  13.520  1.00  0.00     0.015 C 
ATOM     14  C   UNL     1      38.591  34.491  14.454  1.00  0.00     0.012 C 
ATOM     15  C   UNL     1      38.149  35.046  12.098  1.00  0.00     0.012 C 
ENDBRANCH   2  13
TORSDOF 2
BEGIN_RES LYS A 135
REMARK  4 active torsions:
REMARK  status: ('A' for Active; 'I' for Inactive)
REMARK    1  A    between atoms: CA   and  CB  
REMARK    2  A    between atoms: CB   and  CG  
REMARK    3  A    between atoms: CG   and  CD  
REMARK    4  A    between atoms: CD   and  CE  
ROOT
ATOM      1  CA  LYS A 135      33.193  34.663   9.290  1.00 25.02     0.186 C 
ENDROOT
BRANCH   1   2
ATOM      2  CB  LYS A 135      32.060  35.360  10.034  1.00 26.63     0.034 C 
BRANCH   2   3
ATOM      3  CG  LYS A 135      30.706  34.752   9.775  1.00 29.45     0.005 C 
BRANCH   3   4
ATOM      4  CD  LYS A 135      30.469  34.586   8.282  1.00 32.00     0.041 C 
BRANCH   4   5
ATOM      5  CE  LYS A 135      29.015  34.850   7.940  1.00 34.25     0.338 C 
ATOM      6  NZ  LYS A 135      28.891  35.577   6.646  1.00 35.99     0.618 N 
ENDBRANCH   4   5
ENDBRANCH   3   4
ENDBRANCH   2   3
ENDBRANCH   1   2
END_RES LYS A 135
BEGIN_RES TYR A 136
REMARK  2 active torsions:
REMARK  status: ('A' for Active; 'I' for Inactive)
REMARK    5  A    between atoms: CA   and  CB  
REMARK    6  A    between atoms: CB   and  CG  
ROOT
ATOM      7  CA  TYR A 136      36.583  36.399   8.994  1.00 26.14     0.191 C 
ENDROOT
BRANCH   7   8
ATOM      8  CB  TYR A 136      37.367  36.835  10.240  1.00 28.16     0.060 C 
BRANCH   8   9
ATOM      9  CG  TYR A 136      37.136  38.284  10.594  1.00 31.88    -0.020 A 
ATOM     10  CD2 TYR A 136      35.847  38.782  10.795  1.00 32.67    -0.002 A 
ATOM     11  CE2 TYR A 136      35.643  40.130  11.122  1.00 33.89     0.027 A 
ATOM     12  CZ  TYR A 136      36.739  40.987  11.247  1.00 34.34     0.131 A 
ATOM     13  OH  TYR A 136      36.561  42.323  11.576  1.00 35.14    -0.190 OA
ATOM     14  CE1 TYR A 136      38.026  40.509  11.049  1.00 35.01     0.027 A 
ATOM     15  CD1 TYR A 136      38.216  39.166  10.718  1.00 33.57    -0.002 A 
ENDBRANCH   8   9
ENDBRANCH   7   8
END_RES TYR A 136
BEGIN_RES ASN A 133
REMARK  2 active torsions:
REMARK  status: ('A' for Active; 'I' for Inactive)
REMARK    7  A    between atoms: CA   and  CB  
REMARK    8  A    between atoms: CB   and  CG  
ROOT
ATOM     16  CA  ASN A 133      31.225  30.257  11.749  1.00 18.15     0.196 C 
ENDROOT
BRANCH  16  17
ATOM     17  CB  ASN A 133      30.092  31.240  11.460  1.00 18.27     0.126 C 
BRANCH  17  18
ATOM     18  CG  ASN A 133      28.751  30.582  11.352  1.00 18.94     0.276 C 
ATOM     19  OD1 ASN A 133      28.576  29.606  10.620  1.00 18.09    -0.269 OA
ATOM     20  ND2 ASN A 133      27.778  31.118  12.088  1.00 18.93    -0.107 N 
ENDBRANCH  17  18
ENDBRANCH  16  17
END_RES ASN A 133
