REMARK VINA RESULT:    -5.717      4.923      9.284
REMARK INTER + INTRA:         -10.665
REMARK INTER:                  -8.555
REMARK INTRA:                  -2.110
REMARK UNBOUND:                -3.778
REMARK SMILES Cc1cn(-c2ccc(-c3c4ccc(=O)cc-4oc4cc(O)ccc34)c(C(=O)[O-])c2)nn1
REMARK SMILES IDX 9 1 24 2 23 3 22 4 20 5 19 6 18 7 17 8 16 9 15 10 13 11
REMARK SMILES IDX 14 12 12 13 11 14 10 15 8 16 5 17 29 18 6 19 25 20 7 21 4 22
REMARK SMILES IDX 1 23 2 24 3 25 31 26 30 27 26 28 27 29 28 30 21 31
REMARK H PARENT 21 32
REMARK Flexibility Score: inf
ROOT
ATOM      1  C   UNL     1      27.098  36.632   7.812  1.00  0.00     0.004 A 
ATOM      2  C   UNL     1      25.780  36.509   8.193  1.00  0.00     0.026 A 
ATOM      3  C   UNL     1      24.845  37.409   7.729  1.00  0.00     0.016 A 
ATOM      4  C   UNL     1      23.509  37.324   8.087  1.00  0.00     0.047 A 
ATOM      5  C   UNL     1      23.129  36.301   8.930  1.00  0.00     0.119 A 
ATOM      6  C   UNL     1      24.063  35.399   9.395  1.00  0.00     0.093 A 
ATOM      7  C   UNL     1      25.411  35.474   9.042  1.00  0.00     0.139 A 
ATOM      8  O   UNL     1      26.274  34.598   9.504  1.00  0.00    -0.456 OA
ATOM      9  C   UNL     1      27.533  34.630   9.202  1.00  0.00     0.139 A 
ATOM     10  C   UNL     1      28.464  33.731   9.665  1.00  0.00     0.099 A 
ATOM     11  C   UNL     1      29.775  33.871   9.273  1.00  0.00     0.182 A 
ATOM     12  O   UNL     1      30.618  33.045   9.701  1.00  0.00    -0.290 OA
ATOM     13  C   UNL     1      30.194  34.883   8.429  1.00  0.00     0.053 A 
ATOM     14  C   UNL     1      29.316  35.819   7.927  1.00  0.00     0.016 A 
ATOM     15  C   UNL     1      27.988  35.702   8.306  1.00  0.00     0.026 A 
ENDROOT
BRANCH   1  16
ATOM     16  C   UNL     1      27.474  37.713   6.926  1.00  0.00    -0.008 A 
ATOM     17  C   UNL     1      28.210  39.843   5.275  1.00  0.00     0.067 A 
ATOM     18  C   UNL     1      28.212  40.002   6.644  1.00  0.00     0.039 A 
ATOM     19  C   UNL     1      27.844  38.627   4.719  1.00  0.00     0.029 A 
ATOM     20  C   UNL     1      27.844  38.936   7.445  1.00  0.00     0.007 A 
ATOM     21  C   UNL     1      27.481  37.580   5.550  1.00  0.00     0.012 A 
BRANCH  17  22
ATOM     22  N   UNL     1      28.578  40.903   4.402  1.00  0.00    -0.220 N 
ATOM     23  C   UNL     1      27.781  43.538   1.957  1.00  0.00     0.070 C 
ATOM     24  C   UNL     1      28.375  42.559   2.914  1.00  0.00     0.080 A 
ATOM     25  C   UNL     1      27.690  41.607   3.641  1.00  0.00     0.140 A 
ATOM     26  N   UNL     1      29.666  42.403   3.260  1.00  0.00    -0.135 NA
ATOM     27  N   UNL     1      29.751  41.411   4.145  1.00  0.00    -0.062 NA
ENDBRANCH  17  22
BRANCH  20  28
ATOM     28  C   UNL     1      27.850  39.118   8.892  1.00  0.00     0.072 C 
ATOM     29  O   UNL     1      26.855  39.567   9.506  1.00  0.00    -0.545 OA
ATOM     30  O   UNL     1      28.969  38.795   9.648  1.00  0.00    -0.545 OA
ENDBRANCH  20  28
ENDBRANCH   1  16
BRANCH   5  31
ATOM     31  O   UNL     1      21.777  36.206   9.298  1.00  0.00    -0.508 OA
ATOM     32  H   UNL     1      21.351  36.938   9.848  1.00  0.00     0.293 HD
ENDBRANCH   5  31
TORSDOF 4
BEGIN_RES LYS A 135
REMARK  4 active torsions:
REMARK  status: ('A' for Active; 'I' for Inactive)
REMARK    1  A    between atoms: CA   and  CB  
REMARK    2  A    between atoms: CB   and  CG  
REMARK    3  A    between atoms: CG   and  CD  
REMARK    4  A    between atoms: CD   and  CE  
ROOT
ATOM      1  CA  LYS A 135      33.193  34.663   9.290  1.00 25.02     0.186 C 
ENDROOT
BRANCH   1   2
ATOM      2  CB  LYS A 135      32.060  35.360  10.034  1.00 26.63     0.034 C 
BRANCH   2   3
ATOM      3  CG  LYS A 135      32.382  35.662  11.475  1.00 29.45     0.005 C 
BRANCH   3   4
ATOM      4  CD  LYS A 135      31.109  35.920  12.266  1.00 32.00     0.041 C 
BRANCH   4   5
ATOM      5  CE  LYS A 135      30.611  34.638  12.906  1.00 34.25     0.338 C 
ATOM      6  NZ  LYS A 135      29.129  34.650  13.050  1.00 35.99     0.618 N 
ENDBRANCH   4   5
ENDBRANCH   3   4
ENDBRANCH   2   3
ENDBRANCH   1   2
END_RES LYS A 135
BEGIN_RES TYR A 136
REMARK  2 active torsions:
REMARK  status: ('A' for Active; 'I' for Inactive)
REMARK    5  A    between atoms: CA   and  CB  
REMARK    6  A    between atoms: CB   and  CG  
ROOT
ATOM      7  CA  TYR A 136      36.583  36.399   8.994  1.00 26.14     0.191 C 
ENDROOT
BRANCH   7   8
ATOM      8  CB  TYR A 136      37.367  36.835  10.240  1.00 28.16     0.060 C 
BRANCH   8   9
ATOM      9  CG  TYR A 136      37.173  38.295  10.566  1.00 31.88    -0.020 A 
ATOM     10  CD2 TYR A 136      36.319  39.098   9.807  1.00 32.67    -0.002 A 
ATOM     11  CE2 TYR A 136      36.147  40.455  10.117  1.00 33.89     0.027 A 
ATOM     12  CZ  TYR A 136      36.837  41.012  11.196  1.00 34.34     0.131 A 
ATOM     13  OH  TYR A 136      36.677  42.351  11.526  1.00 35.14    -0.190 OA
ATOM     14  CE1 TYR A 136      37.691  40.230  11.960  1.00 35.01     0.027 A 
ATOM     15  CD1 TYR A 136      37.858  38.882  11.638  1.00 33.57    -0.002 A 
ENDBRANCH   8   9
ENDBRANCH   7   8
END_RES TYR A 136
BEGIN_RES ASN A 133
REMARK  2 active torsions:
REMARK  status: ('A' for Active; 'I' for Inactive)
REMARK    7  A    between atoms: CA   and  CB  
REMARK    8  A    between atoms: CB   and  CG  
ROOT
ATOM     16  CA  ASN A 133      31.225  30.257  11.749  1.00 18.15     0.196 C 
ENDROOT
BRANCH  16  17
ATOM     17  CB  ASN A 133      30.092  31.240  11.460  1.00 18.27     0.126 C 
BRANCH  17  18
ATOM     18  CG  ASN A 133      28.747  30.587  11.384  1.00 18.94     0.276 C 
ATOM     19  OD1 ASN A 133      28.549  29.616  10.650  1.00 18.09    -0.269 OA
ATOM     20  ND2 ASN A 133      27.796  31.120  12.150  1.00 18.93    -0.107 N 
ENDBRANCH  17  18
ENDBRANCH  16  17
END_RES ASN A 133
