REMARK VINA RESULT:    -5.223      3.466      6.780
REMARK INTER + INTRA:          -6.841
REMARK INTER:                  -5.370
REMARK INTRA:                  -1.471
REMARK UNBOUND:                -1.313
REMARK SMILES Cc1cn(-c2ccccc2I)nn1
REMARK SMILES IDX 5 1 6 2 7 3 8 4 9 5 10 6 11 7 4 8 1 9 2 10 3 11 13 12 12 13
REMARK H PARENT
REMARK Flexibility Score: inf
ROOT
ATOM      1  C   UNL     1      28.900  35.450   8.003  1.00  0.00     0.080 A 
ATOM      2  C   UNL     1      30.209  35.015   7.982  1.00  0.00     0.029 A 
ATOM      3  C   UNL     1      30.673  34.027   8.837  1.00  0.00     0.002 A 
ATOM      4  C   UNL     1      29.805  33.442   9.753  1.00  0.00     0.001 A 
ATOM      5  C   UNL     1      28.490  33.864   9.790  1.00  0.00     0.017 A 
ATOM      6  C   UNL     1      28.054  34.848   8.928  1.00  0.00     0.039 A 
ATOM      7  I   UNL     1      26.040  35.469   9.011  1.00  0.00    -0.042 I 
ENDROOT
BRANCH   1   8
ATOM      8  N   UNL     1      28.439  36.471   7.113  1.00  0.00    -0.219 N 
ATOM      9  C   UNL     1      27.642  39.787   5.868  1.00  0.00     0.070 C 
ATOM     10  C   UNL     1      27.880  38.336   6.150  1.00  0.00     0.080 A 
ATOM     11  C   UNL     1      28.409  37.788   7.292  1.00  0.00     0.140 A 
ATOM     12  N   UNL     1      27.611  37.313   5.322  1.00  0.00    -0.135 NA
ATOM     13  N   UNL     1      27.952  36.204   5.912  1.00  0.00    -0.062 NA
ENDBRANCH   1   8
TORSDOF 1
BEGIN_RES LYS A 135
REMARK  4 active torsions:
REMARK  status: ('A' for Active; 'I' for Inactive)
REMARK    1  A    between atoms: CA   and  CB  
REMARK    2  A    between atoms: CB   and  CG  
REMARK    3  A    between atoms: CG   and  CD  
REMARK    4  A    between atoms: CD   and  CE  
ROOT
ATOM      1  CA  LYS A 135      33.193  34.663   9.290  1.00 25.02     0.186 C 
ENDROOT
BRANCH   1   2
ATOM      2  CB  LYS A 135      32.060  35.360  10.034  1.00 26.63     0.034 C 
BRANCH   2   3
ATOM      3  CG  LYS A 135      32.519  36.134  11.243  1.00 29.45     0.005 C 
BRANCH   3   4
ATOM      4  CD  LYS A 135      32.042  35.463  12.522  1.00 32.00     0.041 C 
BRANCH   4   5
ATOM      5  CE  LYS A 135      30.537  35.586  12.659  1.00 34.25     0.338 C 
ATOM      6  NZ  LYS A 135      29.957  34.380  13.311  1.00 35.99     0.618 N 
ENDBRANCH   4   5
ENDBRANCH   3   4
ENDBRANCH   2   3
ENDBRANCH   1   2
END_RES LYS A 135
BEGIN_RES TYR A 136
REMARK  2 active torsions:
REMARK  status: ('A' for Active; 'I' for Inactive)
REMARK    5  A    between atoms: CA   and  CB  
REMARK    6  A    between atoms: CB   and  CG  
ROOT
ATOM      7  CA  TYR A 136      36.583  36.399   8.994  1.00 26.14     0.191 C 
ENDROOT
BRANCH   7   8
ATOM      8  CB  TYR A 136      37.367  36.835  10.240  1.00 28.16     0.060 C 
BRANCH   8   9
ATOM      9  CG  TYR A 136      36.480  37.431  11.305  1.00 31.88    -0.020 A 
ATOM     10  CD2 TYR A 136      36.304  36.799  12.537  1.00 32.67    -0.002 A 
ATOM     11  CE2 TYR A 136      35.476  37.360  13.519  1.00 33.89     0.027 A 
ATOM     12  CZ  TYR A 136      34.817  38.566  13.265  1.00 34.34     0.131 A 
ATOM     13  OH  TYR A 136      33.998  39.144  14.224  1.00 35.14    -0.190 OA
ATOM     14  CE1 TYR A 136      34.979  39.207  12.045  1.00 35.01     0.027 A 
ATOM     15  CD1 TYR A 136      35.802  38.635  11.073  1.00 33.57    -0.002 A 
ENDBRANCH   8   9
ENDBRANCH   7   8
END_RES TYR A 136
BEGIN_RES ASN A 133
REMARK  2 active torsions:
REMARK  status: ('A' for Active; 'I' for Inactive)
REMARK    7  A    between atoms: CA   and  CB  
REMARK    8  A    between atoms: CB   and  CG  
ROOT
ATOM     16  CA  ASN A 133      31.225  30.257  11.749  1.00 18.15     0.196 C 
ENDROOT
BRANCH  16  17
ATOM     17  CB  ASN A 133      30.092  31.240  11.460  1.00 18.27     0.126 C 
BRANCH  17  18
ATOM     18  CG  ASN A 133      28.746  30.588  11.392  1.00 18.94     0.276 C 
ATOM     19  OD1 ASN A 133      28.543  29.617  10.661  1.00 18.09    -0.269 OA
ATOM     20  ND2 ASN A 133      27.800  31.123  12.163  1.00 18.93    -0.107 N 
ENDBRANCH  17  18
ENDBRANCH  16  17
END_RES ASN A 133
