REMARK VINA RESULT:    -4.651      1.789      4.180
REMARK INTER + INTRA:          -8.440
REMARK INTER:                  -5.412
REMARK INTRA:                  -3.028
REMARK UNBOUND:                -3.245
REMARK SMILES Cc1cn(CC2=CC[C@H]3C[C@@H]2C3(C)C)nn1
REMARK SMILES IDX 5 1 4 2 1 3 2 4 3 5 16 6 15 7 6 8 7 9 11 10 8 11 10 12 12 13
REMARK SMILES IDX 9 14 13 15 14 16
REMARK H PARENT
REMARK Flexibility Score: inf
ROOT
ATOM      1  C   UNL     1      35.859  34.075  12.871  1.00  0.00     0.177 C 
ENDROOT
BRANCH   1   2
ATOM      2  N   UNL     1      37.281  34.290  13.013  1.00  0.00    -0.248 N 
ATOM      3  C   UNL     1      40.608  35.455  12.003  1.00  0.00     0.070 C 
ATOM      4  C   UNL     1      39.391  34.897  12.640  1.00  0.00     0.080 A 
ATOM      5  C   UNL     1      38.089  34.891  12.124  1.00  0.00     0.134 A 
ATOM      6  N   UNL     1      39.278  34.286  13.835  1.00  0.00    -0.136 NA
ATOM      7  N   UNL     1      38.018  33.928  14.047  1.00  0.00    -0.067 NA
ENDBRANCH   1   2
BRANCH   1   8
ATOM      8  C   UNL     1      35.076  35.192  13.426  1.00  0.00    -0.049 C 
ATOM      9  C   UNL     1      35.505  36.006  14.376  1.00  0.00    -0.025 C 
ATOM     10  C   UNL     1      33.712  35.436  12.897  1.00  0.00     0.023 C 
ATOM     11  C   UNL     1      34.575  37.061  14.923  1.00  0.00     0.031 C 
ATOM     12  C   UNL     1      33.672  36.950  12.621  1.00  0.00     0.013 C 
ATOM     13  C   UNL     1      32.723  35.718  14.008  1.00  0.00    -0.026 C 
ATOM     14  C   UNL     1      33.318  37.092  14.107  1.00  0.00    -0.000 C 
ATOM     15  C   UNL     1      32.823  34.847  15.213  1.00  0.00     0.012 C 
ATOM     16  C   UNL     1      31.314  35.673  13.442  1.00  0.00     0.012 C 
ENDBRANCH   1   8
TORSDOF 2
BEGIN_RES LYS A 135
REMARK  4 active torsions:
REMARK  status: ('A' for Active; 'I' for Inactive)
REMARK    1  A    between atoms: CA   and  CB  
REMARK    2  A    between atoms: CB   and  CG  
REMARK    3  A    between atoms: CG   and  CD  
REMARK    4  A    between atoms: CD   and  CE  
ROOT
ATOM      1  CA  LYS A 135      33.193  34.663   9.290  1.00 25.02     0.186 C 
ENDROOT
BRANCH   1   2
ATOM      2  CB  LYS A 135      32.060  35.360  10.034  1.00 26.63     0.034 C 
BRANCH   2   3
ATOM      3  CG  LYS A 135      30.738  34.645   9.925  1.00 29.45     0.005 C 
BRANCH   3   4
ATOM      4  CD  LYS A 135      30.344  34.464   8.468  1.00 32.00     0.041 C 
BRANCH   4   5
ATOM      5  CE  LYS A 135      28.837  34.533   8.311  1.00 34.25     0.338 C 
ATOM      6  NZ  LYS A 135      28.149  33.810   9.417  1.00 35.99     0.618 N 
ENDBRANCH   4   5
ENDBRANCH   3   4
ENDBRANCH   2   3
ENDBRANCH   1   2
END_RES LYS A 135
BEGIN_RES TYR A 136
REMARK  2 active torsions:
REMARK  status: ('A' for Active; 'I' for Inactive)
REMARK    5  A    between atoms: CA   and  CB  
REMARK    6  A    between atoms: CB   and  CG  
ROOT
ATOM      7  CA  TYR A 136      36.583  36.399   8.994  1.00 26.14     0.191 C 
ENDROOT
BRANCH   7   8
ATOM      8  CB  TYR A 136      37.367  36.835  10.240  1.00 28.16     0.060 C 
BRANCH   8   9
ATOM      9  CG  TYR A 136      36.772  38.053  10.903  1.00 31.88    -0.020 A 
ATOM     10  CD2 TYR A 136      37.112  38.402  12.212  1.00 32.67    -0.002 A 
ATOM     11  CE2 TYR A 136      36.552  39.534  12.820  1.00 33.89     0.027 A 
ATOM     12  CZ  TYR A 136      35.643  40.324  12.111  1.00 34.34     0.131 A 
ATOM     13  OH  TYR A 136      35.082  41.454  12.690  1.00 35.14    -0.190 OA
ATOM     14  CE1 TYR A 136      35.293  39.991  10.811  1.00 35.01     0.027 A 
ATOM     15  CD1 TYR A 136      35.853  38.857  10.218  1.00 33.57    -0.002 A 
ENDBRANCH   8   9
ENDBRANCH   7   8
END_RES TYR A 136
BEGIN_RES ASN A 133
REMARK  2 active torsions:
REMARK  status: ('A' for Active; 'I' for Inactive)
REMARK    7  A    between atoms: CA   and  CB  
REMARK    8  A    between atoms: CB   and  CG  
ROOT
ATOM     16  CA  ASN A 133      31.225  30.257  11.749  1.00 18.15     0.196 C 
ENDROOT
BRANCH  16  17
ATOM     17  CB  ASN A 133      30.092  31.240  11.460  1.00 18.27     0.126 C 
BRANCH  17  18
ATOM     18  CG  ASN A 133      28.752  30.581  11.344  1.00 18.94     0.276 C 
ATOM     19  OD1 ASN A 133      28.586  29.597  10.621  1.00 18.09    -0.269 OA
ATOM     20  ND2 ASN A 133      27.771  31.126  12.062  1.00 18.93    -0.107 N 
ENDBRANCH  17  18
ENDBRANCH  16  17
END_RES ASN A 133
