REMARK VINA RESULT:    -4.586      2.852      4.954
REMARK INTER + INTRA:          -8.866
REMARK INTER:                  -5.689
REMARK INTRA:                  -3.177
REMARK UNBOUND:                -3.208
REMARK SMILES CCOC(=O)c1cccc(-n2cc(C)nn2)c1
REMARK SMILES IDX 4 1 5 2 6 3 10 4 17 5 9 6 8 7 7 8 11 9 14 10 13 11 12 12
REMARK SMILES IDX 15 13 16 14 3 15 2 16 1 17
REMARK H PARENT
REMARK Flexibility Score: inf
ROOT
ATOM      1  C   UNL     1      34.454  35.179  13.600  1.00  0.00     0.338 C 
ATOM      2  O   UNL     1      33.954  35.906  12.705  1.00  0.00    -0.246 OA
ENDROOT
BRANCH   1   3
ATOM      3  C   UNL     1      35.792  34.617  13.505  1.00  0.00     0.062 A 
ATOM      4  C   UNL     1      38.004  34.277  14.413  1.00  0.00     0.067 A 
ATOM      5  C   UNL     1      36.737  34.808  14.501  1.00  0.00     0.044 A 
ATOM      6  C   UNL     1      38.319  33.541  13.297  1.00  0.00     0.028 A 
ATOM      7  C   UNL     1      37.413  33.316  12.267  1.00  0.00     0.003 A 
ATOM      8  C   UNL     1      36.157  33.870  12.407  1.00  0.00     0.016 A 
BRANCH   4   9
ATOM      9  N   UNL     1      38.976  34.470  15.429  1.00  0.00    -0.220 N 
ATOM     10  C   UNL     1      40.241  34.453  18.889  1.00  0.00     0.070 C 
ATOM     11  C   UNL     1      40.007  34.560  17.425  1.00  0.00     0.080 A 
ATOM     12  C   UNL     1      38.836  34.257  16.760  1.00  0.00     0.140 A 
ATOM     13  N   UNL     1      40.851  34.959  16.451  1.00  0.00    -0.135 NA
ATOM     14  N   UNL     1      40.235  34.903  15.283  1.00  0.00    -0.062 NA
ENDBRANCH   4   9
ENDBRANCH   1   3
BRANCH   1  15
ATOM     15  O   UNL     1      33.661  34.930  14.708  1.00  0.00    -0.462 OA
BRANCH  15  16
ATOM     16  C   UNL     1      32.274  34.691  14.579  1.00  0.00     0.230 C 
ATOM     17  C   UNL     1      31.904  33.520  15.438  1.00  0.00     0.049 C 
ENDBRANCH  15  16
ENDBRANCH   1  15
TORSDOF 4
BEGIN_RES LYS A 135
REMARK  4 active torsions:
REMARK  status: ('A' for Active; 'I' for Inactive)
REMARK    1  A    between atoms: CA   and  CB  
REMARK    2  A    between atoms: CB   and  CG  
REMARK    3  A    between atoms: CG   and  CD  
REMARK    4  A    between atoms: CD   and  CE  
ROOT
ATOM      1  CA  LYS A 135      33.193  34.663   9.290  1.00 25.02     0.186 C 
ENDROOT
BRANCH   1   2
ATOM      2  CB  LYS A 135      32.060  35.360  10.034  1.00 26.63     0.034 C 
BRANCH   2   3
ATOM      3  CG  LYS A 135      30.705  34.755   9.772  1.00 29.45     0.005 C 
BRANCH   3   4
ATOM      4  CD  LYS A 135      30.459  34.615   8.278  1.00 32.00     0.041 C 
BRANCH   4   5
ATOM      5  CE  LYS A 135      29.015  34.936   7.943  1.00 34.25     0.338 C 
ATOM      6  NZ  LYS A 135      28.899  35.528   6.582  1.00 35.99     0.618 N 
ENDBRANCH   4   5
ENDBRANCH   3   4
ENDBRANCH   2   3
ENDBRANCH   1   2
END_RES LYS A 135
BEGIN_RES TYR A 136
REMARK  2 active torsions:
REMARK  status: ('A' for Active; 'I' for Inactive)
REMARK    5  A    between atoms: CA   and  CB  
REMARK    6  A    between atoms: CB   and  CG  
ROOT
ATOM      7  CA  TYR A 136      36.583  36.399   8.994  1.00 26.14     0.191 C 
ENDROOT
BRANCH   7   8
ATOM      8  CB  TYR A 136      37.367  36.835  10.240  1.00 28.16     0.060 C 
BRANCH   8   9
ATOM      9  CG  TYR A 136      36.629  37.866  11.059  1.00 31.88    -0.020 A 
ATOM     10  CD2 TYR A 136      35.760  38.779  10.458  1.00 32.67    -0.002 A 
ATOM     11  CE2 TYR A 136      35.081  39.734  11.227  1.00 33.89     0.027 A 
ATOM     12  CZ  TYR A 136      35.273  39.775  12.610  1.00 34.34     0.131 A 
ATOM     13  OH  TYR A 136      34.606  40.707  13.393  1.00 35.14    -0.190 OA
ATOM     14  CE1 TYR A 136      36.134  38.876  13.223  1.00 35.01     0.027 A 
ATOM     15  CD1 TYR A 136      36.810  37.934  12.446  1.00 33.57    -0.002 A 
ENDBRANCH   8   9
ENDBRANCH   7   8
END_RES TYR A 136
BEGIN_RES ASN A 133
REMARK  2 active torsions:
REMARK  status: ('A' for Active; 'I' for Inactive)
REMARK    7  A    between atoms: CA   and  CB  
REMARK    8  A    between atoms: CB   and  CG  
ROOT
ATOM     16  CA  ASN A 133      31.225  30.257  11.749  1.00 18.15     0.196 C 
ENDROOT
BRANCH  16  17
ATOM     17  CB  ASN A 133      30.092  31.240  11.460  1.00 18.27     0.126 C 
BRANCH  17  18
ATOM     18  CG  ASN A 133      28.756  30.579  11.321  1.00 18.94     0.276 C 
ATOM     19  OD1 ASN A 133      28.595  29.616  10.569  1.00 18.09    -0.269 OA
ATOM     20  ND2 ASN A 133      27.771  31.096  12.054  1.00 18.93    -0.107 N 
ENDBRANCH  17  18
ENDBRANCH  16  17
END_RES ASN A 133
