REMARK VINA RESULT:    -4.208      3.608      4.631
REMARK INTER + INTRA:          -8.178
REMARK INTER:                  -4.923
REMARK INTRA:                  -3.255
REMARK UNBOUND:                -3.109
REMARK SMILES Cc1cn(Cc2ccc(C(=O)O)cc2)nn1
REMARK SMILES IDX 6 1 7 2 8 3 9 4 13 5 14 6 5 7 4 8 1 9 2 10 3 11 16 12 15 13
REMARK SMILES IDX 10 14 11 15 12 16
REMARK H PARENT 12 17
REMARK Flexibility Score: inf
ROOT
ATOM      1  C   UNL     1      38.601  34.493  17.225  1.00  0.00    -0.026 A 
ATOM      2  C   UNL     1      37.930  35.311  18.100  1.00  0.00     0.006 A 
ATOM      3  C   UNL     1      37.530  34.809  19.318  1.00  0.00     0.016 A 
ATOM      4  C   UNL     1      37.770  33.512  19.717  1.00  0.00     0.059 A 
ATOM      5  C   UNL     1      38.449  32.728  18.801  1.00  0.00     0.016 A 
ATOM      6  C   UNL     1      38.861  33.200  17.577  1.00  0.00     0.006 A 
ENDROOT
BRANCH   1   7
ATOM      7  C   UNL     1      39.054  34.991  15.894  1.00  0.00     0.181 C 
BRANCH   7   8
ATOM      8  N   UNL     1      38.025  34.686  14.911  1.00  0.00    -0.248 N 
ATOM      9  C   UNL     1      34.852  35.209  13.118  1.00  0.00     0.070 C 
ATOM     10  C   UNL     1      36.155  34.814  13.703  1.00  0.00     0.080 A 
ATOM     11  C   UNL     1      36.883  35.396  14.707  1.00  0.00     0.134 A 
ATOM     12  N   UNL     1      36.880  33.747  13.310  1.00  0.00    -0.136 NA
ATOM     13  N   UNL     1      37.986  33.691  14.042  1.00  0.00    -0.067 NA
ENDBRANCH   7   8
ENDBRANCH   1   7
BRANCH   4  14
ATOM     14  C   UNL     1      37.337  33.004  21.011  1.00  0.00     0.335 C 
ATOM     15  O   UNL     1      36.509  32.061  21.015  1.00  0.00    -0.246 OA
BRANCH  14  16
ATOM     16  O   UNL     1      37.781  33.496  22.209  1.00  0.00    -0.478 OA
ATOM     17  H   UNL     1      38.417  32.997  22.835  1.00  0.00     0.297 HD
ENDBRANCH  14  16
ENDBRANCH   4  14
TORSDOF 4
BEGIN_RES LYS A 135
REMARK  4 active torsions:
REMARK  status: ('A' for Active; 'I' for Inactive)
REMARK    1  A    between atoms: CA   and  CB  
REMARK    2  A    between atoms: CB   and  CG  
REMARK    3  A    between atoms: CG   and  CD  
REMARK    4  A    between atoms: CD   and  CE  
ROOT
ATOM      1  CA  LYS A 135      33.193  34.663   9.290  1.00 25.02     0.186 C 
ENDROOT
BRANCH   1   2
ATOM      2  CB  LYS A 135      32.060  35.360  10.034  1.00 26.63     0.034 C 
BRANCH   2   3
ATOM      3  CG  LYS A 135      30.867  35.666   9.165  1.00 29.45     0.005 C 
BRANCH   3   4
ATOM      4  CD  LYS A 135      30.391  34.413   8.447  1.00 32.00     0.041 C 
BRANCH   4   5
ATOM      5  CE  LYS A 135      28.877  34.388   8.365  1.00 34.25     0.338 C 
ATOM      6  NZ  LYS A 135      28.284  33.775   9.585  1.00 35.99     0.618 N 
ENDBRANCH   4   5
ENDBRANCH   3   4
ENDBRANCH   2   3
ENDBRANCH   1   2
END_RES LYS A 135
BEGIN_RES TYR A 136
REMARK  2 active torsions:
REMARK  status: ('A' for Active; 'I' for Inactive)
REMARK    5  A    between atoms: CA   and  CB  
REMARK    6  A    between atoms: CB   and  CG  
ROOT
ATOM      7  CA  TYR A 136      36.583  36.399   8.994  1.00 26.14     0.191 C 
ENDROOT
BRANCH   7   8
ATOM      8  CB  TYR A 136      37.367  36.835  10.240  1.00 28.16     0.060 C 
BRANCH   8   9
ATOM      9  CG  TYR A 136      36.771  38.052  10.904  1.00 31.88    -0.020 A 
ATOM     10  CD2 TYR A 136      36.859  38.237  12.286  1.00 32.67    -0.002 A 
ATOM     11  CE2 TYR A 136      36.300  39.370  12.893  1.00 33.89     0.027 A 
ATOM     12  CZ  TYR A 136      35.647  40.326  12.111  1.00 34.34     0.131 A 
ATOM     13  OH  TYR A 136      35.093  41.459  12.690  1.00 35.14    -0.190 OA
ATOM     14  CE1 TYR A 136      35.550  40.157  10.737  1.00 35.01     0.027 A 
ATOM     15  CD1 TYR A 136      36.104  39.022  10.145  1.00 33.57    -0.002 A 
ENDBRANCH   8   9
ENDBRANCH   7   8
END_RES TYR A 136
BEGIN_RES ASN A 133
REMARK  2 active torsions:
REMARK  status: ('A' for Active; 'I' for Inactive)
REMARK    7  A    between atoms: CA   and  CB  
REMARK    8  A    between atoms: CB   and  CG  
ROOT
ATOM     16  CA  ASN A 133      31.225  30.257  11.749  1.00 18.15     0.196 C 
ENDROOT
BRANCH  16  17
ATOM     17  CB  ASN A 133      30.092  31.240  11.460  1.00 18.27     0.126 C 
BRANCH  17  18
ATOM     18  CG  ASN A 133      28.747  30.586  11.382  1.00 18.94     0.276 C 
ATOM     19  OD1 ASN A 133      28.562  29.590  10.681  1.00 18.09    -0.269 OA
ATOM     20  ND2 ASN A 133      27.782  31.149  12.109  1.00 18.93    -0.107 N 
ENDBRANCH  17  18
ENDBRANCH  16  17
END_RES ASN A 133
