REMARK VINA RESULT:    -4.035      4.044      8.171
REMARK INTER + INTRA:          -8.002
REMARK INTER:                  -5.818
REMARK INTRA:                  -2.183
REMARK UNBOUND:                -3.259
REMARK SMILES Cc1cn(Cc2cccc(C#N)c2)nn1
REMARK SMILES IDX 6 1 7 2 8 3 9 4 10 5 13 6 5 7 4 8 1 9 2 10 3 11 15 12 14 13
REMARK SMILES IDX 11 14 12 15
REMARK H PARENT
REMARK Flexibility Score: inf
ROOT
ATOM      1  C   UNL     1      25.735  36.259   8.891  1.00  0.00    -0.025 A 
ATOM      2  C   UNL     1      26.341  35.043   9.088  1.00  0.00     0.006 A 
ATOM      3  C   UNL     1      27.334  34.553   8.263  1.00  0.00     0.002 A 
ATOM      4  C   UNL     1      27.728  35.330   7.193  1.00  0.00     0.019 A 
ATOM      5  C   UNL     1      27.148  36.559   6.954  1.00  0.00     0.052 A 
ATOM      6  C   UNL     1      26.148  37.017   7.813  1.00  0.00     0.025 A 
ENDROOT
BRANCH   1   7
ATOM      7  C   UNL     1      24.674  36.786   9.770  1.00  0.00     0.181 C 
BRANCH   7   8
ATOM      8  N   UNL     1      23.384  36.809   9.158  1.00  0.00    -0.248 N 
ATOM      9  C   UNL     1      20.396  35.157   7.881  1.00  0.00     0.070 C 
ATOM     10  C   UNL     1      21.487  36.086   8.320  1.00  0.00     0.080 A 
ATOM     11  C   UNL     1      22.659  35.705   8.906  1.00  0.00     0.134 A 
ATOM     12  N   UNL     1      21.514  37.428   8.223  1.00  0.00    -0.136 NA
ATOM     13  N   UNL     1      22.659  37.841   8.730  1.00  0.00    -0.067 NA
ENDBRANCH   7   8
ENDBRANCH   1   7
BRANCH   5  14
ATOM     14  C   UNL     1      27.605  37.315   5.824  1.00  0.00     0.099 C 
ATOM     15  N   UNL     1      27.981  37.936   4.927  1.00  0.00    -0.192 NA
ENDBRANCH   5  14
TORSDOF 3
BEGIN_RES LYS A 135
REMARK  4 active torsions:
REMARK  status: ('A' for Active; 'I' for Inactive)
REMARK    1  A    between atoms: CA   and  CB  
REMARK    2  A    between atoms: CB   and  CG  
REMARK    3  A    between atoms: CG   and  CD  
REMARK    4  A    between atoms: CD   and  CE  
ROOT
ATOM      1  CA  LYS A 135      33.193  34.663   9.290  1.00 25.02     0.186 C 
ENDROOT
BRANCH   1   2
ATOM      2  CB  LYS A 135      32.060  35.360  10.034  1.00 26.63     0.034 C 
BRANCH   2   3
ATOM      3  CG  LYS A 135      30.803  35.506   9.217  1.00 29.45     0.005 C 
BRANCH   3   4
ATOM      4  CD  LYS A 135      30.080  36.797   9.569  1.00 32.00     0.041 C 
BRANCH   4   5
ATOM      5  CE  LYS A 135      29.709  36.816  11.039  1.00 34.25     0.338 C 
ATOM      6  NZ  LYS A 135      28.305  37.273  11.232  1.00 35.99     0.618 N 
ENDBRANCH   4   5
ENDBRANCH   3   4
ENDBRANCH   2   3
ENDBRANCH   1   2
END_RES LYS A 135
BEGIN_RES TYR A 136
REMARK  2 active torsions:
REMARK  status: ('A' for Active; 'I' for Inactive)
REMARK    5  A    between atoms: CA   and  CB  
REMARK    6  A    between atoms: CB   and  CG  
ROOT
ATOM      7  CA  TYR A 136      36.583  36.399   8.994  1.00 26.14     0.191 C 
ENDROOT
BRANCH   7   8
ATOM      8  CB  TYR A 136      37.367  36.835  10.240  1.00 28.16     0.060 C 
BRANCH   8   9
ATOM      9  CG  TYR A 136      37.244  38.313  10.515  1.00 31.88    -0.020 A 
ATOM     10  CD2 TYR A 136      38.362  39.150  10.487  1.00 32.67    -0.002 A 
ATOM     11  CE2 TYR A 136      38.236  40.522  10.746  1.00 33.89     0.027 A 
ATOM     12  CZ  TYR A 136      36.981  41.061  11.036  1.00 34.34     0.131 A 
ATOM     13  OH  TYR A 136      36.832  42.418  11.289  1.00 35.14    -0.190 OA
ATOM     14  CE1 TYR A 136      35.860  40.245  11.069  1.00 35.01     0.027 A 
ATOM     15  CD1 TYR A 136      35.998  38.879  10.816  1.00 33.57    -0.002 A 
ENDBRANCH   8   9
ENDBRANCH   7   8
END_RES TYR A 136
BEGIN_RES ASN A 133
REMARK  2 active torsions:
REMARK  status: ('A' for Active; 'I' for Inactive)
REMARK    7  A    between atoms: CA   and  CB  
REMARK    8  A    between atoms: CB   and  CG  
ROOT
ATOM     16  CA  ASN A 133      31.225  30.257  11.749  1.00 18.15     0.196 C 
ENDROOT
BRANCH  16  17
ATOM     17  CB  ASN A 133      30.092  31.240  11.460  1.00 18.27     0.126 C 
BRANCH  17  18
ATOM     18  CG  ASN A 133      28.754  30.580  11.331  1.00 18.94     0.276 C 
ATOM     19  OD1 ASN A 133      28.592  29.605  10.595  1.00 18.09    -0.269 OA
ATOM     20  ND2 ASN A 133      27.770  31.112  12.054  1.00 18.93    -0.107 N 
ENDBRANCH  17  18
ENDBRANCH  16  17
END_RES ASN A 133
