REMARK VINA RESULT:    -5.146      2.299      4.715
REMARK INTER + INTRA:          -8.710
REMARK INTER:                  -5.888
REMARK INTRA:                  -2.821
REMARK UNBOUND:                -3.263
REMARK SMILES Cc1cn(C2c3ccccc3-c3ccccc32)nn1
REMARK SMILES IDX 5 1 6 2 7 3 8 4 9 5 10 6 11 7 12 8 13 9 14 10 15 11 16 12
REMARK SMILES IDX 17 13 4 14 1 15 2 16 3 17 19 18 18 19
REMARK H PARENT
REMARK Flexibility Score: inf
ROOT
ATOM      1  C   UNL     1      29.913  35.736  13.795  1.00  0.00     0.170 C 
ATOM      2  C   UNL     1      31.293  35.977  13.350  1.00  0.00    -0.011 A 
ATOM      3  C   UNL     1      31.783  36.975  12.523  1.00  0.00     0.007 A 
ATOM      4  C   UNL     1      33.129  37.022  12.228  1.00  0.00     0.000 A 
ATOM      5  C   UNL     1      33.969  36.060  12.770  1.00  0.00     0.001 A 
ATOM      6  C   UNL     1      33.481  35.060  13.598  1.00  0.00     0.009 A 
ATOM      7  C   UNL     1      32.128  35.032  13.882  1.00  0.00    -0.012 A 
ATOM      8  C   UNL     1      31.321  34.140  14.692  1.00  0.00    -0.012 A 
ATOM      9  C   UNL     1      31.720  33.021  15.436  1.00  0.00     0.009 A 
ATOM     10  C   UNL     1      30.765  32.330  16.128  1.00  0.00     0.001 A 
ATOM     11  C   UNL     1      29.427  32.688  16.125  1.00  0.00     0.000 A 
ATOM     12  C   UNL     1      29.093  33.787  15.383  1.00  0.00     0.007 A 
ATOM     13  C   UNL     1      30.009  34.542  14.652  1.00  0.00    -0.011 A 
ENDROOT
BRANCH   1  14
ATOM     14  N   UNL     1      29.010  35.593  12.702  1.00  0.00    -0.240 N 
ATOM     15  C   UNL     1      27.441  33.770   9.977  1.00  0.00     0.070 C 
ATOM     16  C   UNL     1      27.892  34.742  10.997  1.00  0.00     0.080 A 
ATOM     17  C   UNL     1      28.861  34.490  11.957  1.00  0.00     0.135 A 
ATOM     18  N   UNL     1      27.493  35.998  11.204  1.00  0.00    -0.136 NA
ATOM     19  N   UNL     1      28.178  36.502  12.241  1.00  0.00    -0.066 NA
ENDBRANCH   1  14
TORSDOF 1
BEGIN_RES LYS A 135
REMARK  4 active torsions:
REMARK  status: ('A' for Active; 'I' for Inactive)
REMARK    1  A    between atoms: CA   and  CB  
REMARK    2  A    between atoms: CB   and  CG  
REMARK    3  A    between atoms: CG   and  CD  
REMARK    4  A    between atoms: CD   and  CE  
ROOT
ATOM      1  CA  LYS A 135      33.193  34.663   9.290  1.00 25.02     0.186 C 
ENDROOT
BRANCH   1   2
ATOM      2  CB  LYS A 135      32.060  35.360  10.034  1.00 26.63     0.034 C 
BRANCH   2   3
ATOM      3  CG  LYS A 135      30.919  35.775   9.142  1.00 29.45     0.005 C 
BRANCH   3   4
ATOM      4  CD  LYS A 135      30.539  34.646   8.196  1.00 32.00     0.041 C 
BRANCH   4   5
ATOM      5  CE  LYS A 135      29.402  35.073   7.287  1.00 34.25     0.338 C 
ATOM      6  NZ  LYS A 135      28.859  36.399   7.693  1.00 35.99     0.618 N 
ENDBRANCH   4   5
ENDBRANCH   3   4
ENDBRANCH   2   3
ENDBRANCH   1   2
END_RES LYS A 135
BEGIN_RES TYR A 136
REMARK  2 active torsions:
REMARK  status: ('A' for Active; 'I' for Inactive)
REMARK    5  A    between atoms: CA   and  CB  
REMARK    6  A    between atoms: CB   and  CG  
ROOT
ATOM      7  CA  TYR A 136      36.583  36.399   8.994  1.00 26.14     0.191 C 
ENDROOT
BRANCH   7   8
ATOM      8  CB  TYR A 136      37.367  36.835  10.240  1.00 28.16     0.060 C 
BRANCH   8   9
ATOM      9  CG  TYR A 136      36.690  37.956  10.989  1.00 31.88    -0.020 A 
ATOM     10  CD2 TYR A 136      35.841  38.853  10.335  1.00 32.67    -0.002 A 
ATOM     11  CE2 TYR A 136      35.218  39.893  11.040  1.00 33.89     0.027 A 
ATOM     12  CZ  TYR A 136      35.447  40.036  12.411  1.00 34.34     0.131 A 
ATOM     13  OH  TYR A 136      34.835  41.053  13.130  1.00 35.14    -0.190 OA
ATOM     14  CE1 TYR A 136      36.287  39.155  13.075  1.00 35.01     0.027 A 
ATOM     15  CD1 TYR A 136      36.907  38.127  12.362  1.00 33.57    -0.002 A 
ENDBRANCH   8   9
ENDBRANCH   7   8
END_RES TYR A 136
BEGIN_RES ASN A 133
REMARK  2 active torsions:
REMARK  status: ('A' for Active; 'I' for Inactive)
REMARK    7  A    between atoms: CA   and  CB  
REMARK    8  A    between atoms: CB   and  CG  
ROOT
ATOM     16  CA  ASN A 133      31.225  30.257  11.749  1.00 18.15     0.196 C 
ENDROOT
BRANCH  16  17
ATOM     17  CB  ASN A 133      30.092  31.240  11.460  1.00 18.27     0.126 C 
BRANCH  17  18
ATOM     18  CG  ASN A 133      28.749  30.584  11.365  1.00 18.94     0.276 C 
ATOM     19  OD1 ASN A 133      28.538  29.676  10.559  1.00 18.09    -0.269 OA
ATOM     20  ND2 ASN A 133      27.816  31.044  12.198  1.00 18.93    -0.107 N 
ENDBRANCH  17  18
ENDBRANCH  16  17
END_RES ASN A 133
