REMARK VINA RESULT:    -3.643      7.682     10.710
REMARK INTER + INTRA:          -7.175
REMARK INTER:                  -3.989
REMARK INTRA:                  -3.186
REMARK UNBOUND:                -3.213
REMARK SMILES Cc1cn(-c2nc(C)nc(N)n2)nn1
REMARK SMILES IDX 5 1 12 2 10 3 9 4 7 5 8 6 6 7 4 8 1 9 2 10 3 11 14 12 13 13
REMARK SMILES IDX 11 14
REMARK H PARENT 11 15 11 16
REMARK Flexibility Score: inf
ROOT
ATOM      1  C   UNL     1      35.044  39.059   4.112  1.00  0.00     0.257 A 
ATOM      2  N   UNL     1      35.973  38.156   4.429  1.00  0.00    -0.175 NA
ATOM      3  C   UNL     1      36.878  37.783   3.518  1.00  0.00     0.225 A 
ATOM      4  N   UNL     1      36.847  38.321   2.286  1.00  0.00    -0.198 NA
ATOM      5  C   UNL     1      35.914  39.235   1.950  1.00  0.00     0.133 A 
ATOM      6  C   UNL     1      35.877  39.833   0.583  1.00  0.00     0.090 C 
ATOM      7  N   UNL     1      35.026  39.582   2.889  1.00  0.00    -0.196 NA
ENDROOT
BRANCH   1   8
ATOM      8  N   UNL     1      34.087  39.448   5.089  1.00  0.00    -0.185 N 
ATOM      9  C   UNL     1      30.932  40.767   6.370  1.00  0.00     0.070 C 
ATOM     10  C   UNL     1      32.269  40.202   6.111  1.00  0.00     0.080 A 
ATOM     11  C   UNL     1      32.859  39.975   4.893  1.00  0.00     0.144 A 
ATOM     12  N   UNL     1      33.154  39.808   7.028  1.00  0.00    -0.135 NA
ATOM     13  N   UNL     1      34.225  39.364   6.392  1.00  0.00    -0.059 NA
ENDBRANCH   1   8
BRANCH   3  14
ATOM     14  N   UNL     1      37.843  36.818   3.913  1.00  0.00    -0.368 N 
ATOM     15  H   UNL     1      37.571  36.028   4.534  1.00  0.00     0.159 HD
ATOM     16  H   UNL     1      38.830  36.878   3.593  1.00  0.00     0.159 HD
ENDBRANCH   3  14
TORSDOF 2
BEGIN_RES LYS A 135
REMARK  4 active torsions:
REMARK  status: ('A' for Active; 'I' for Inactive)
REMARK    1  A    between atoms: CA   and  CB  
REMARK    2  A    between atoms: CB   and  CG  
REMARK    3  A    between atoms: CG   and  CD  
REMARK    4  A    between atoms: CD   and  CE  
ROOT
ATOM      1  CA  LYS A 135      33.193  34.663   9.290  1.00 25.02     0.186 C 
ENDROOT
BRANCH   1   2
ATOM      2  CB  LYS A 135      32.060  35.360  10.034  1.00 26.63     0.034 C 
BRANCH   2   3
ATOM      3  CG  LYS A 135      30.704  34.758   9.767  1.00 29.45     0.005 C 
BRANCH   3   4
ATOM      4  CD  LYS A 135      30.480  34.583   8.273  1.00 32.00     0.041 C 
BRANCH   4   5
ATOM      5  CE  LYS A 135      29.026  34.834   7.920  1.00 34.25     0.338 C 
ATOM      6  NZ  LYS A 135      28.907  35.554   6.622  1.00 35.99     0.618 N 
ENDBRANCH   4   5
ENDBRANCH   3   4
ENDBRANCH   2   3
ENDBRANCH   1   2
END_RES LYS A 135
BEGIN_RES TYR A 136
REMARK  2 active torsions:
REMARK  status: ('A' for Active; 'I' for Inactive)
REMARK    5  A    between atoms: CA   and  CB  
REMARK    6  A    between atoms: CB   and  CG  
ROOT
ATOM      7  CA  TYR A 136      36.583  36.399   8.994  1.00 26.14     0.191 C 
ENDROOT
BRANCH   7   8
ATOM      8  CB  TYR A 136      37.367  36.835  10.240  1.00 28.16     0.060 C 
BRANCH   8   9
ATOM      9  CG  TYR A 136      37.332  38.328  10.454  1.00 31.88    -0.020 A 
ATOM     10  CD2 TYR A 136      38.510  39.074  10.538  1.00 32.67    -0.002 A 
ATOM     11  CE2 TYR A 136      38.467  40.461  10.739  1.00 33.89     0.027 A 
ATOM     12  CZ  TYR A 136      37.234  41.106  10.858  1.00 34.34     0.131 A 
ATOM     13  OH  TYR A 136      37.167  42.479  11.050  1.00 35.14    -0.190 OA
ATOM     14  CE1 TYR A 136      36.054  40.381  10.778  1.00 35.01     0.027 A 
ATOM     15  CD1 TYR A 136      36.110  39.000  10.584  1.00 33.57    -0.002 A 
ENDBRANCH   8   9
ENDBRANCH   7   8
END_RES TYR A 136
BEGIN_RES ASN A 133
REMARK  2 active torsions:
REMARK  status: ('A' for Active; 'I' for Inactive)
REMARK    7  A    between atoms: CA   and  CB  
REMARK    8  A    between atoms: CB   and  CG  
ROOT
ATOM     16  CA  ASN A 133      31.225  30.257  11.749  1.00 18.15     0.196 C 
ENDROOT
BRANCH  16  17
ATOM     17  CB  ASN A 133      30.092  31.240  11.460  1.00 18.27     0.126 C 
BRANCH  17  18
ATOM     18  CG  ASN A 133      28.753  30.581  11.342  1.00 18.94     0.276 C 
ATOM     19  OD1 ASN A 133      28.580  29.613  10.599  1.00 18.09    -0.269 OA
ATOM     20  ND2 ASN A 133      27.778  31.106  12.083  1.00 18.93    -0.107 N 
ENDBRANCH  17  18
ENDBRANCH  16  17
END_RES ASN A 133
