REMARK VINA RESULT:    -4.409      8.011     14.073
REMARK INTER + INTRA:          -7.666
REMARK INTER:                  -4.561
REMARK INTRA:                  -3.104
REMARK UNBOUND:                -2.999
REMARK SMILES Cc1cn([C@@H]2C[C@H]3CC[C@@H](C2)N3C)nn1
REMARK SMILES IDX 5 1 11 2 10 3 12 4 13 5 7 6 6 7 8 8 9 9 4 10 1 11 2 12 3 13
REMARK SMILES IDX 15 14 14 15
REMARK H PARENT
REMARK Flexibility Score: inf
ROOT
ATOM      1  C   UNL     1      35.187  36.172  13.891  1.00  0.00     0.112 C 
ATOM      2  C   UNL     1      34.330  36.011  12.689  1.00  0.00     0.046 C 
ATOM      3  C   UNL     1      32.897  36.322  12.864  1.00  0.00     0.058 C 
ATOM      4  N   UNL     1      32.344  35.947  14.143  1.00  0.00    -0.300 NA
ATOM      5  C   UNL     1      30.943  36.217  14.167  1.00  0.00     0.105 C 
ATOM      6  C   UNL     1      33.098  36.846  15.033  1.00  0.00     0.058 C 
ATOM      7  C   UNL     1      34.453  36.157  15.195  1.00  0.00     0.046 C 
ATOM      8  C   UNL     1      33.221  38.150  14.305  1.00  0.00     0.021 C 
ATOM      9  C   UNL     1      32.708  37.844  12.901  1.00  0.00     0.021 C 
ENDROOT
BRANCH   1  10
ATOM     10  N   UNL     1      36.227  35.160  13.849  1.00  0.00    -0.249 N 
ATOM     11  C   UNL     1      38.235  32.428  12.492  1.00  0.00     0.070 C 
ATOM     12  C   UNL     1      37.609  33.501  13.278  1.00  0.00     0.080 A 
ATOM     13  C   UNL     1      36.528  34.281  12.875  1.00  0.00     0.134 A 
ATOM     14  N   UNL     1      37.916  33.960  14.506  1.00  0.00    -0.136 NA
ATOM     15  N   UNL     1      37.099  34.925  14.821  1.00  0.00    -0.067 NA
ENDBRANCH   1  10
TORSDOF 1
BEGIN_RES LYS A 135
REMARK  4 active torsions:
REMARK  status: ('A' for Active; 'I' for Inactive)
REMARK    1  A    between atoms: CA   and  CB  
REMARK    2  A    between atoms: CB   and  CG  
REMARK    3  A    between atoms: CG   and  CD  
REMARK    4  A    between atoms: CD   and  CE  
ROOT
ATOM      1  CA  LYS A 135      33.193  34.663   9.290  1.00 25.02     0.186 C 
ENDROOT
BRANCH   1   2
ATOM      2  CB  LYS A 135      32.060  35.360  10.034  1.00 26.63     0.034 C 
BRANCH   2   3
ATOM      3  CG  LYS A 135      30.703  34.764   9.761  1.00 29.45     0.005 C 
BRANCH   3   4
ATOM      4  CD  LYS A 135      30.475  34.612   8.265  1.00 32.00     0.041 C 
BRANCH   4   5
ATOM      5  CE  LYS A 135      29.015  34.838   7.923  1.00 34.25     0.338 C 
ATOM      6  NZ  LYS A 135      28.872  35.566   6.632  1.00 35.99     0.618 N 
ENDBRANCH   4   5
ENDBRANCH   3   4
ENDBRANCH   2   3
ENDBRANCH   1   2
END_RES LYS A 135
BEGIN_RES TYR A 136
REMARK  2 active torsions:
REMARK  status: ('A' for Active; 'I' for Inactive)
REMARK    5  A    between atoms: CA   and  CB  
REMARK    6  A    between atoms: CB   and  CG  
ROOT
ATOM      7  CA  TYR A 136      36.583  36.399   8.994  1.00 26.14     0.191 C 
ENDROOT
BRANCH   7   8
ATOM      8  CB  TYR A 136      37.367  36.835  10.240  1.00 28.16     0.060 C 
BRANCH   8   9
ATOM      9  CG  TYR A 136      36.760  38.040  10.915  1.00 31.88    -0.020 A 
ATOM     10  CD2 TYR A 136      35.744  38.777  10.302  1.00 32.67    -0.002 A 
ATOM     11  CE2 TYR A 136      35.188  39.896  10.937  1.00 33.89     0.027 A 
ATOM     12  CZ  TYR A 136      35.653  40.281  12.198  1.00 34.34     0.131 A 
ATOM     13  OH  TYR A 136      35.112  41.381  12.848  1.00 35.14    -0.190 OA
ATOM     14  CE1 TYR A 136      36.662  39.561  12.821  1.00 35.01     0.027 A 
ATOM     15  CD1 TYR A 136      37.212  38.452  12.175  1.00 33.57    -0.002 A 
ENDBRANCH   8   9
ENDBRANCH   7   8
END_RES TYR A 136
BEGIN_RES ASN A 133
REMARK  2 active torsions:
REMARK  status: ('A' for Active; 'I' for Inactive)
REMARK    7  A    between atoms: CA   and  CB  
REMARK    8  A    between atoms: CB   and  CG  
ROOT
ATOM     16  CA  ASN A 133      31.225  30.257  11.749  1.00 18.15     0.196 C 
ENDROOT
BRANCH  16  17
ATOM     17  CB  ASN A 133      30.092  31.240  11.460  1.00 18.27     0.126 C 
BRANCH  17  18
ATOM     18  CG  ASN A 133      28.749  30.584  11.365  1.00 18.94     0.276 C 
ATOM     19  OD1 ASN A 133      28.565  29.613  10.629  1.00 18.09    -0.269 OA
ATOM     20  ND2 ASN A 133      27.786  31.116  12.116  1.00 18.93    -0.107 N 
ENDBRANCH  17  18
ENDBRANCH  16  17
END_RES ASN A 133
