REMARK VINA RESULT:    -4.817      6.658     10.035
REMARK INTER + INTRA:          -8.951
REMARK INTER:                  -5.353
REMARK INTRA:                  -3.598
REMARK UNBOUND:                -3.149
REMARK SMILES Cc1cn(-c2cc(C(=O)O)nc(-c3ccccc3)c2)nn1
REMARK SMILES IDX 5 1 6 2 7 3 11 4 12 5 19 6 4 7 1 8 2 9 3 10 21 11 20 12 8 13
REMARK SMILES IDX 9 14 10 15 13 17 14 18 18 19 15 20 17 21 16 22
REMARK H PARENT 10 16
REMARK Flexibility Score: inf
ROOT
ATOM      1  C   UNL     1      37.033  39.188   2.367  1.00  0.00     0.071 A 
ATOM      2  C   UNL     1      38.062  38.329   2.679  1.00  0.00     0.064 A 
ATOM      3  C   UNL     1      38.215  37.834   3.969  1.00  0.00     0.151 A 
ATOM      4  N   UNL     1      37.334  38.216   4.903  1.00  0.00    -0.241 NA
ATOM      5  C   UNL     1      36.297  39.056   4.679  1.00  0.00     0.073 A 
ATOM      6  C   UNL     1      36.163  39.535   3.394  1.00  0.00     0.057 A 
ENDROOT
BRANCH   1   7
ATOM      7  N   UNL     1      36.840  39.716   1.064  1.00  0.00    -0.220 N 
ATOM      8  C   UNL     1      34.937  41.039  -1.783  1.00  0.00     0.070 C 
ATOM      9  C   UNL     1      35.936  40.544  -0.802  1.00  0.00     0.080 A 
ATOM     10  C   UNL     1      35.683  40.078   0.472  1.00  0.00     0.140 A 
ATOM     11  N   UNL     1      37.278  40.447  -0.942  1.00  0.00    -0.135 NA
ATOM     12  N   UNL     1      37.790  39.956   0.172  1.00  0.00    -0.062 NA
ENDBRANCH   1   7
BRANCH   3  13
ATOM     13  C   UNL     1      39.320  36.928   4.245  1.00  0.00     0.354 C 
ATOM     14  O   UNL     1      39.493  35.955   3.469  1.00  0.00    -0.245 OA
BRANCH  13  15
ATOM     15  O   UNL     1      40.178  37.092   5.316  1.00  0.00    -0.477 OA
ATOM     16  H   UNL     1      39.847  37.038   6.290  1.00  0.00     0.297 HD
ENDBRANCH  13  15
ENDBRANCH   3  13
BRANCH   5  17
ATOM     17  C   UNL     1      35.407  39.395   5.778  1.00  0.00     0.000 A 
ATOM     18  C   UNL     1      35.854  39.619   7.045  1.00  0.00     0.010 A 
ATOM     19  C   UNL     1      34.053  39.500   5.549  1.00  0.00     0.010 A 
ATOM     20  C   UNL     1      34.935  39.941   8.050  1.00  0.00     0.001 A 
ATOM     21  C   UNL     1      33.150  39.813   6.524  1.00  0.00     0.001 A 
ATOM     22  C   UNL     1      33.599  40.039   7.804  1.00  0.00     0.000 A 
ENDBRANCH   5  17
TORSDOF 4
BEGIN_RES LYS A 135
REMARK  4 active torsions:
REMARK  status: ('A' for Active; 'I' for Inactive)
REMARK    1  A    between atoms: CA   and  CB  
REMARK    2  A    between atoms: CB   and  CG  
REMARK    3  A    between atoms: CG   and  CD  
REMARK    4  A    between atoms: CD   and  CE  
ROOT
ATOM      1  CA  LYS A 135      33.193  34.663   9.290  1.00 25.02     0.186 C 
ENDROOT
BRANCH   1   2
ATOM      2  CB  LYS A 135      32.060  35.360  10.034  1.00 26.63     0.034 C 
BRANCH   2   3
ATOM      3  CG  LYS A 135      30.807  35.517   9.212  1.00 29.45     0.005 C 
BRANCH   3   4
ATOM      4  CD  LYS A 135      30.152  34.167   8.969  1.00 32.00     0.041 C 
BRANCH   4   5
ATOM      5  CE  LYS A 135      28.689  34.341   8.607  1.00 34.25     0.338 C 
ATOM      6  NZ  LYS A 135      27.805  33.722   9.633  1.00 35.99     0.618 N 
ENDBRANCH   4   5
ENDBRANCH   3   4
ENDBRANCH   2   3
ENDBRANCH   1   2
END_RES LYS A 135
BEGIN_RES TYR A 136
REMARK  2 active torsions:
REMARK  status: ('A' for Active; 'I' for Inactive)
REMARK    5  A    between atoms: CA   and  CB  
REMARK    6  A    between atoms: CB   and  CG  
ROOT
ATOM      7  CA  TYR A 136      36.583  36.399   8.994  1.00 26.14     0.191 C 
ENDROOT
BRANCH   7   8
ATOM      8  CB  TYR A 136      37.367  36.835  10.240  1.00 28.16     0.060 C 
BRANCH   8   9
ATOM      9  CG  TYR A 136      37.201  38.303  10.545  1.00 31.88    -0.020 A 
ATOM     10  CD2 TYR A 136      36.157  38.761  11.353  1.00 32.67    -0.002 A 
ATOM     11  CE2 TYR A 136      36.011  40.127  11.629  1.00 33.89     0.027 A 
ATOM     12  CZ  TYR A 136      36.918  41.044  11.092  1.00 34.34     0.131 A 
ATOM     13  OH  TYR A 136      36.796  42.401  11.358  1.00 35.14    -0.190 OA
ATOM     14  CE1 TYR A 136      37.960  40.608  10.287  1.00 35.01     0.027 A 
ATOM     15  CD1 TYR A 136      38.092  39.245  10.014  1.00 33.57    -0.002 A 
ENDBRANCH   8   9
ENDBRANCH   7   8
END_RES TYR A 136
BEGIN_RES ASN A 133
REMARK  2 active torsions:
REMARK  status: ('A' for Active; 'I' for Inactive)
REMARK    7  A    between atoms: CA   and  CB  
REMARK    8  A    between atoms: CB   and  CG  
ROOT
ATOM     16  CA  ASN A 133      31.225  30.257  11.749  1.00 18.15     0.196 C 
ENDROOT
BRANCH  16  17
ATOM     17  CB  ASN A 133      30.092  31.240  11.460  1.00 18.27     0.126 C 
BRANCH  17  18
ATOM     18  CG  ASN A 133      28.748  30.586  11.378  1.00 18.94     0.276 C 
ATOM     19  OD1 ASN A 133      28.557  29.607  10.653  1.00 18.09    -0.269 OA
ATOM     20  ND2 ASN A 133      27.789  31.128  12.128  1.00 18.93    -0.107 N 
ENDBRANCH  17  18
ENDBRANCH  16  17
END_RES ASN A 133
