REMARK VINA RESULT:    -3.475      2.766      4.762
REMARK INTER + INTRA:          -7.784
REMARK INTER:                  -4.265
REMARK INTRA:                  -3.519
REMARK UNBOUND:                -3.496
REMARK SMILES Cc1cn(CC(=O)NCc2cccs2)nn1
REMARK SMILES IDX 6 1 7 2 8 3 5 5 4 6 1 7 2 8 3 9 16 10 15 11 9 12 10 13 11 14
REMARK SMILES IDX 14 15 12 16 13 17
REMARK H PARENT 8 4
REMARK Flexibility Score: inf
ROOT
ATOM      1  C   UNL     1      32.326  34.569  15.992  1.00  0.00     0.242 C 
ATOM      2  O   UNL     1      31.525  34.629  16.960  1.00  0.00    -0.273 OA
ATOM      3  N   UNL     1      32.043  33.638  14.975  1.00  0.00    -0.350 N 
ATOM      4  H   UNL     1      32.661  33.535  14.156  1.00  0.00     0.163 HD
ENDROOT
BRANCH   1   5
ATOM      5  C   UNL     1      33.495  35.480  16.002  1.00  0.00     0.245 C 
BRANCH   5   6
ATOM      6  N   UNL     1      33.865  35.887  14.678  1.00  0.00    -0.243 N 
ATOM      7  C   UNL     1      33.638  38.049  11.710  1.00  0.00     0.070 C 
ATOM      8  C   UNL     1      33.923  37.034  12.787  1.00  0.00     0.080 A 
ATOM      9  C   UNL     1      33.320  36.943  14.018  1.00  0.00     0.134 A 
ATOM     10  N   UNL     1      34.819  36.015  12.752  1.00  0.00    -0.136 NA
ATOM     11  N   UNL     1      34.755  35.358  13.894  1.00  0.00    -0.067 NA
ENDBRANCH   5   6
ENDBRANCH   1   5
BRANCH   3  12
ATOM     12  C   UNL     1      30.860  32.767  15.034  1.00  0.00     0.162 C 
BRANCH  12  13
ATOM     13  C   UNL     1      29.844  33.423  14.189  1.00  0.00     0.024 A 
ATOM     14  C   UNL     1      29.848  33.940  12.947  1.00  0.00     0.017 A 
ATOM     15  S   UNL     1      28.134  33.717  14.721  1.00  0.00    -0.147 S 
ATOM     16  C   UNL     1      28.749  34.485  12.437  1.00  0.00     0.012 A 
ATOM     17  C   UNL     1      27.611  34.502  13.222  1.00  0.00     0.065 A 
ENDBRANCH  12  13
ENDBRANCH   3  12
TORSDOF 4
BEGIN_RES LYS A 135
REMARK  4 active torsions:
REMARK  status: ('A' for Active; 'I' for Inactive)
REMARK    1  A    between atoms: CA   and  CB  
REMARK    2  A    between atoms: CB   and  CG  
REMARK    3  A    between atoms: CG   and  CD  
REMARK    4  A    between atoms: CD   and  CE  
ROOT
ATOM      1  CA  LYS A 135      33.193  34.663   9.290  1.00 25.02     0.186 C 
ENDROOT
BRANCH   1   2
ATOM      2  CB  LYS A 135      32.060  35.360  10.034  1.00 26.63     0.034 C 
BRANCH   2   3
ATOM      3  CG  LYS A 135      30.824  35.563   9.196  1.00 29.45     0.005 C 
BRANCH   3   4
ATOM      4  CD  LYS A 135      30.126  34.236   8.940  1.00 32.00     0.041 C 
BRANCH   4   5
ATOM      5  CE  LYS A 135      28.735  34.465   8.380  1.00 34.25     0.338 C 
ATOM      6  NZ  LYS A 135      28.784  35.297   7.146  1.00 35.99     0.618 N 
ENDBRANCH   4   5
ENDBRANCH   3   4
ENDBRANCH   2   3
ENDBRANCH   1   2
END_RES LYS A 135
BEGIN_RES TYR A 136
REMARK  2 active torsions:
REMARK  status: ('A' for Active; 'I' for Inactive)
REMARK    5  A    between atoms: CA   and  CB  
REMARK    6  A    between atoms: CB   and  CG  
ROOT
ATOM      7  CA  TYR A 136      36.583  36.399   8.994  1.00 26.14     0.191 C 
ENDROOT
BRANCH   7   8
ATOM      8  CB  TYR A 136      37.367  36.835  10.240  1.00 28.16     0.060 C 
BRANCH   8   9
ATOM      9  CG  TYR A 136      37.097  38.269  10.623  1.00 31.88    -0.020 A 
ATOM     10  CD2 TYR A 136      37.325  38.726  11.923  1.00 32.67    -0.002 A 
ATOM     11  CE2 TYR A 136      37.069  40.059  12.269  1.00 33.89     0.027 A 
ATOM     12  CZ  TYR A 136      36.580  40.945  11.306  1.00 34.34     0.131 A 
ATOM     13  OH  TYR A 136      36.326  42.272  11.624  1.00 35.14    -0.190 OA
ATOM     14  CE1 TYR A 136      36.346  40.508  10.010  1.00 35.01     0.027 A 
ATOM     15  CD1 TYR A 136      36.599  39.176   9.678  1.00 33.57    -0.002 A 
ENDBRANCH   8   9
ENDBRANCH   7   8
END_RES TYR A 136
BEGIN_RES ASN A 133
REMARK  2 active torsions:
REMARK  status: ('A' for Active; 'I' for Inactive)
REMARK    7  A    between atoms: CA   and  CB  
REMARK    8  A    between atoms: CB   and  CG  
ROOT
ATOM     16  CA  ASN A 133      31.225  30.257  11.749  1.00 18.15     0.196 C 
ENDROOT
BRANCH  16  17
ATOM     17  CB  ASN A 133      30.092  31.240  11.460  1.00 18.27     0.126 C 
BRANCH  17  18
ATOM     18  CG  ASN A 133      28.756  30.578  11.319  1.00 18.94     0.276 C 
ATOM     19  OD1 ASN A 133      28.594  29.623  10.558  1.00 18.09    -0.269 OA
ATOM     20  ND2 ASN A 133      27.773  31.088  12.060  1.00 18.93    -0.107 N 
ENDBRANCH  17  18
ENDBRANCH  16  17
END_RES ASN A 133
