REMARK VINA RESULT:    -4.209      3.449      4.218
REMARK INTER + INTRA:          -9.108
REMARK INTER:                  -5.562
REMARK INTRA:                  -3.546
REMARK UNBOUND:                -3.546
REMARK SMILES Cc1cn(CC(O)CCc2ccccc2)nn1
REMARK SMILES IDX 8 1 6 2 5 3 4 4 1 5 2 6 3 7 17 8 16 9 7 10 9 12 10 13 11 14
REMARK SMILES IDX 15 15 12 16 14 17 13 18
REMARK H PARENT 7 11
REMARK Flexibility Score: inf
ROOT
ATOM      1  C   UNL     1      39.278  34.846  16.238  1.00  0.00     0.038 C 
ENDROOT
BRANCH   1   2
ATOM      2  C   UNL     1      39.478  34.039  17.500  1.00  0.00     0.136 C 
BRANCH   2   3
ATOM      3  C   UNL     1      38.673  34.633  18.636  1.00  0.00     0.177 C 
BRANCH   3   4
ATOM      4  N   UNL     1      38.615  33.712  19.748  1.00  0.00    -0.250 N 
ATOM      5  C   UNL     1      39.851  32.315  22.900  1.00  0.00     0.070 C 
ATOM      6  C   UNL     1      39.157  32.706  21.632  1.00  0.00     0.080 A 
ATOM      7  C   UNL     1      39.515  33.699  20.760  1.00  0.00     0.134 A 
ATOM      8  N   UNL     1      38.052  32.136  21.137  1.00  0.00    -0.136 NA
ATOM      9  N   UNL     1      37.752  32.758  20.013  1.00  0.00    -0.067 NA
ENDBRANCH   3   4
ENDBRANCH   2   3
BRANCH   2  10
ATOM     10  O   UNL     1      39.177  32.721  17.265  1.00  0.00    -0.391 OA
ATOM     11  H   UNL     1      38.233  32.480  17.437  1.00  0.00     0.211 HD
ENDBRANCH   2  10
ENDBRANCH   1   2
BRANCH   1  12
ATOM     12  C   UNL     1      37.837  35.163  15.964  1.00  0.00     0.038 C 
BRANCH  12  13
ATOM     13  C   UNL     1      37.489  34.591  14.644  1.00  0.00    -0.048 A 
ATOM     14  C   UNL     1      36.260  34.900  14.082  1.00  0.00     0.004 A 
ATOM     15  C   UNL     1      38.326  33.757  13.938  1.00  0.00     0.004 A 
ATOM     16  C   UNL     1      35.911  34.379  12.852  1.00  0.00     0.000 A 
ATOM     17  C   UNL     1      37.967  33.240  12.707  1.00  0.00     0.000 A 
ATOM     18  C   UNL     1      36.747  33.543  12.140  1.00  0.00     0.000 A 
ENDBRANCH  12  13
ENDBRANCH   1  12
TORSDOF 6
BEGIN_RES LYS A 135
REMARK  4 active torsions:
REMARK  status: ('A' for Active; 'I' for Inactive)
REMARK    1  A    between atoms: CA   and  CB  
REMARK    2  A    between atoms: CB   and  CG  
REMARK    3  A    between atoms: CG   and  CD  
REMARK    4  A    between atoms: CD   and  CE  
ROOT
ATOM      1  CA  LYS A 135      33.193  34.663   9.290  1.00 25.02     0.186 C 
ENDROOT
BRANCH   1   2
ATOM      2  CB  LYS A 135      32.060  35.360  10.034  1.00 26.63     0.034 C 
BRANCH   2   3
ATOM      3  CG  LYS A 135      30.844  35.612   9.181  1.00 29.45     0.005 C 
BRANCH   3   4
ATOM      4  CD  LYS A 135      30.303  34.306   8.619  1.00 32.00     0.041 C 
BRANCH   4   5
ATOM      5  CE  LYS A 135      28.803  34.217   8.827  1.00 34.25     0.338 C 
ATOM      6  NZ  LYS A 135      28.455  34.316  10.272  1.00 35.99     0.618 N 
ENDBRANCH   4   5
ENDBRANCH   3   4
ENDBRANCH   2   3
ENDBRANCH   1   2
END_RES LYS A 135
BEGIN_RES TYR A 136
REMARK  2 active torsions:
REMARK  status: ('A' for Active; 'I' for Inactive)
REMARK    5  A    between atoms: CA   and  CB  
REMARK    6  A    between atoms: CB   and  CG  
ROOT
ATOM      7  CA  TYR A 136      36.583  36.399   8.994  1.00 26.14     0.191 C 
ENDROOT
BRANCH   7   8
ATOM      8  CB  TYR A 136      37.367  36.835  10.240  1.00 28.16     0.060 C 
BRANCH   8   9
ATOM      9  CG  TYR A 136      36.704  37.975  10.973  1.00 31.88    -0.020 A 
ATOM     10  CD2 TYR A 136      36.748  38.062  12.366  1.00 32.67    -0.002 A 
ATOM     11  CE2 TYR A 136      36.127  39.124  13.038  1.00 33.89     0.027 A 
ATOM     12  CZ  TYR A 136      35.456  40.109  12.308  1.00 34.34     0.131 A 
ATOM     13  OH  TYR A 136      34.841  41.173  12.952  1.00 35.14    -0.190 OA
ATOM     14  CE1 TYR A 136      35.402  40.038  10.924  1.00 35.01     0.027 A 
ATOM     15  CD1 TYR A 136      36.018  38.972  10.267  1.00 33.57    -0.002 A 
ENDBRANCH   8   9
ENDBRANCH   7   8
END_RES TYR A 136
BEGIN_RES ASN A 133
REMARK  2 active torsions:
REMARK  status: ('A' for Active; 'I' for Inactive)
REMARK    7  A    between atoms: CA   and  CB  
REMARK    8  A    between atoms: CB   and  CG  
ROOT
ATOM     16  CA  ASN A 133      31.225  30.257  11.749  1.00 18.15     0.196 C 
ENDROOT
BRANCH  16  17
ATOM     17  CB  ASN A 133      30.092  31.240  11.460  1.00 18.27     0.126 C 
BRANCH  17  18
ATOM     18  CG  ASN A 133      28.757  30.578  11.312  1.00 18.94     0.276 C 
ATOM     19  OD1 ASN A 133      28.606  29.605  10.571  1.00 18.09    -0.269 OA
ATOM     20  ND2 ASN A 133      27.763  31.106  12.024  1.00 18.93    -0.107 N 
ENDBRANCH  17  18
ENDBRANCH  16  17
END_RES ASN A 133
