REMARK VINA RESULT:    -3.042      8.092     16.104
REMARK INTER + INTRA:          -6.798
REMARK INTER:                  -3.661
REMARK INTRA:                  -3.136
REMARK UNBOUND:                -3.222
REMARK SMILES Cc1cn(CCN2CCCC2)nn1
REMARK SMILES IDX 5 1 4 2 1 3 2 4 3 5 13 6 12 7 6 8 7 9 8 10 11 11 9 12 10 13
REMARK H PARENT
REMARK Flexibility Score: inf
ROOT
ATOM      1  C   UNL     1      38.204  36.126  15.986  1.00  0.00     0.161 C 
ENDROOT
BRANCH   1   2
ATOM      2  N   UNL     1      37.607  35.571  14.789  1.00  0.00    -0.251 N 
ATOM      3  C   UNL     1      37.337  32.940  12.275  1.00  0.00     0.070 C 
ATOM      4  C   UNL     1      37.210  34.147  13.120  1.00  0.00     0.080 A 
ATOM      5  C   UNL     1      37.971  34.377  14.246  1.00  0.00     0.134 A 
ATOM      6  N   UNL     1      36.408  35.218  13.021  1.00  0.00    -0.136 NA
ATOM      7  N   UNL     1      36.658  36.051  14.020  1.00  0.00    -0.067 NA
ENDBRANCH   1   2
BRANCH   1   8
ATOM      8  C   UNL     1      37.698  35.441  17.233  1.00  0.00     0.108 C 
BRANCH   8   9
ATOM      9  N   UNL     1      38.723  35.179  18.189  1.00  0.00    -0.301 NA
ATOM     10  C   UNL     1      39.680  34.190  17.814  1.00  0.00     0.084 C 
ATOM     11  C   UNL     1      38.080  34.585  19.363  1.00  0.00     0.084 C 
ATOM     12  C   UNL     1      38.914  32.910  17.882  1.00  0.00     0.017 C 
ATOM     13  C   UNL     1      38.106  33.105  19.153  1.00  0.00     0.017 C 
ENDBRANCH   8   9
ENDBRANCH   1   8
TORSDOF 3
BEGIN_RES LYS A 135
REMARK  4 active torsions:
REMARK  status: ('A' for Active; 'I' for Inactive)
REMARK    1  A    between atoms: CA   and  CB  
REMARK    2  A    between atoms: CB   and  CG  
REMARK    3  A    between atoms: CG   and  CD  
REMARK    4  A    between atoms: CD   and  CE  
ROOT
ATOM      1  CA  LYS A 135      33.193  34.663   9.290  1.00 25.02     0.186 C 
ENDROOT
BRANCH   1   2
ATOM      2  CB  LYS A 135      32.060  35.360  10.034  1.00 26.63     0.034 C 
BRANCH   2   3
ATOM      3  CG  LYS A 135      30.707  34.744   9.786  1.00 29.45     0.005 C 
BRANCH   3   4
ATOM      4  CD  LYS A 135      30.428  34.645   8.294  1.00 32.00     0.041 C 
BRANCH   4   5
ATOM      5  CE  LYS A 135      28.947  34.819   8.016  1.00 34.25     0.338 C 
ATOM      6  NZ  LYS A 135      28.385  35.955   8.797  1.00 35.99     0.618 N 
ENDBRANCH   4   5
ENDBRANCH   3   4
ENDBRANCH   2   3
ENDBRANCH   1   2
END_RES LYS A 135
BEGIN_RES TYR A 136
REMARK  2 active torsions:
REMARK  status: ('A' for Active; 'I' for Inactive)
REMARK    5  A    between atoms: CA   and  CB  
REMARK    6  A    between atoms: CB   and  CG  
ROOT
ATOM      7  CA  TYR A 136      36.583  36.399   8.994  1.00 26.14     0.191 C 
ENDROOT
BRANCH   7   8
ATOM      8  CB  TYR A 136      37.367  36.835  10.240  1.00 28.16     0.060 C 
BRANCH   8   9
ATOM      9  CG  TYR A 136      37.106  38.273  10.616  1.00 31.88    -0.020 A 
ATOM     10  CD2 TYR A 136      36.307  39.095   9.819  1.00 32.67    -0.002 A 
ATOM     11  CE2 TYR A 136      36.072  40.430  10.176  1.00 33.89     0.027 A 
ATOM     12  CZ  TYR A 136      36.642  40.946  11.342  1.00 34.34     0.131 A 
ATOM     13  OH  TYR A 136      36.417  42.263  11.720  1.00 35.14    -0.190 OA
ATOM     14  CE1 TYR A 136      37.439  40.144  12.146  1.00 35.01     0.027 A 
ATOM     15  CD1 TYR A 136      37.671  38.818  11.776  1.00 33.57    -0.002 A 
ENDBRANCH   8   9
ENDBRANCH   7   8
END_RES TYR A 136
BEGIN_RES ASN A 133
REMARK  2 active torsions:
REMARK  status: ('A' for Active; 'I' for Inactive)
REMARK    7  A    between atoms: CA   and  CB  
REMARK    8  A    between atoms: CB   and  CG  
ROOT
ATOM     16  CA  ASN A 133      31.225  30.257  11.749  1.00 18.15     0.196 C 
ENDROOT
BRANCH  16  17
ATOM     17  CB  ASN A 133      30.092  31.240  11.460  1.00 18.27     0.126 C 
BRANCH  17  18
ATOM     18  CG  ASN A 133      28.747  30.586  11.380  1.00 18.94     0.276 C 
ATOM     19  OD1 ASN A 133      28.560  29.599  10.666  1.00 18.09    -0.269 OA
ATOM     20  ND2 ASN A 133      27.786  31.138  12.118  1.00 18.93    -0.107 N 
ENDBRANCH  17  18
ENDBRANCH  16  17
END_RES ASN A 133
