REMARK VINA RESULT:    -3.746      3.749      5.112
REMARK INTER + INTRA:          -7.416
REMARK INTER:                  -4.219
REMARK INTRA:                  -3.197
REMARK UNBOUND:                -3.232
REMARK SMILES Cc1cn(Cc2cccc(Br)c2)nn1
REMARK SMILES IDX 5 1 4 2 1 3 2 4 3 5 14 6 13 7 6 8 7 9 12 10 8 11 10 12 9 13
REMARK SMILES IDX 11 14
REMARK H PARENT
REMARK Flexibility Score: inf
ROOT
ATOM      1  C   UNL     1      30.097  31.809  19.706  1.00  0.00     0.181 C 
ENDROOT
BRANCH   1   2
ATOM      2  N   UNL     1      31.008  30.904  20.358  1.00  0.00    -0.248 N 
ATOM      3  C   UNL     1      33.811  29.799  22.418  1.00  0.00     0.070 C 
ATOM      4  C   UNL     1      32.645  30.033  21.554  1.00  0.00     0.080 A 
ATOM      5  C   UNL     1      32.054  31.206  21.148  1.00  0.00     0.134 A 
ATOM      6  N   UNL     1      31.913  29.048  20.979  1.00  0.00    -0.136 NA
ATOM      7  N   UNL     1      30.933  29.588  20.263  1.00  0.00    -0.067 NA
ENDBRANCH   1   2
BRANCH   1   8
ATOM      8  C   UNL     1      30.540  32.195  18.358  1.00  0.00    -0.025 A 
ATOM      9  C   UNL     1      30.280  31.331  17.306  1.00  0.00     0.006 A 
ATOM     10  C   UNL     1      31.203  33.364  18.056  1.00  0.00     0.021 A 
ATOM     11  C   UNL     1      30.660  31.615  16.011  1.00  0.00     0.002 A 
ATOM     12  C   UNL     1      31.590  33.659  16.760  1.00  0.00     0.018 A 
ATOM     13  C   UNL     1      31.317  32.779  15.730  1.00  0.00     0.016 A 
ATOM     14  Br  UNL     1      32.499  35.298  16.439  1.00  0.00    -0.051 Br
ENDBRANCH   1   8
TORSDOF 2
BEGIN_RES LYS A 135
REMARK  4 active torsions:
REMARK  status: ('A' for Active; 'I' for Inactive)
REMARK    1  A    between atoms: CA   and  CB  
REMARK    2  A    between atoms: CB   and  CG  
REMARK    3  A    between atoms: CG   and  CD  
REMARK    4  A    between atoms: CD   and  CE  
ROOT
ATOM      1  CA  LYS A 135      33.193  34.663   9.290  1.00 25.02     0.186 C 
ENDROOT
BRANCH   1   2
ATOM      2  CB  LYS A 135      32.060  35.360  10.034  1.00 26.63     0.034 C 
BRANCH   2   3
ATOM      3  CG  LYS A 135      30.837  35.594   9.186  1.00 29.45     0.005 C 
BRANCH   3   4
ATOM      4  CD  LYS A 135      30.269  34.275   8.686  1.00 32.00     0.041 C 
BRANCH   4   5
ATOM      5  CE  LYS A 135      28.753  34.296   8.730  1.00 34.25     0.338 C 
ATOM      6  NZ  LYS A 135      28.196  35.112   7.616  1.00 35.99     0.618 N 
ENDBRANCH   4   5
ENDBRANCH   3   4
ENDBRANCH   2   3
ENDBRANCH   1   2
END_RES LYS A 135
BEGIN_RES TYR A 136
REMARK  2 active torsions:
REMARK  status: ('A' for Active; 'I' for Inactive)
REMARK    5  A    between atoms: CA   and  CB  
REMARK    6  A    between atoms: CB   and  CG  
ROOT
ATOM      7  CA  TYR A 136      36.583  36.399   8.994  1.00 26.14     0.191 C 
ENDROOT
BRANCH   7   8
ATOM      8  CB  TYR A 136      37.367  36.835  10.240  1.00 28.16     0.060 C 
BRANCH   8   9
ATOM      9  CG  TYR A 136      37.208  38.305  10.541  1.00 31.88    -0.020 A 
ATOM     10  CD2 TYR A 136      37.921  38.913  11.576  1.00 32.67    -0.002 A 
ATOM     11  CE2 TYR A 136      37.765  40.279  11.849  1.00 33.89     0.027 A 
ATOM     12  CZ  TYR A 136      36.886  41.044  11.078  1.00 34.34     0.131 A 
ATOM     13  OH  TYR A 136      36.721  42.399  11.325  1.00 35.14    -0.190 OA
ATOM     14  CE1 TYR A 136      36.169  40.456  10.045  1.00 35.01     0.027 A 
ATOM     15  CD1 TYR A 136      36.328  39.094   9.788  1.00 33.57    -0.002 A 
ENDBRANCH   8   9
ENDBRANCH   7   8
END_RES TYR A 136
BEGIN_RES ASN A 133
REMARK  2 active torsions:
REMARK  status: ('A' for Active; 'I' for Inactive)
REMARK    7  A    between atoms: CA   and  CB  
REMARK    8  A    between atoms: CB   and  CG  
ROOT
ATOM     16  CA  ASN A 133      31.225  30.257  11.749  1.00 18.15     0.196 C 
ENDROOT
BRANCH  16  17
ATOM     17  CB  ASN A 133      30.092  31.240  11.460  1.00 18.27     0.126 C 
BRANCH  17  18
ATOM     18  CG  ASN A 133      28.757  30.578  11.316  1.00 18.94     0.276 C 
ATOM     19  OD1 ASN A 133      28.608  29.590  10.595  1.00 18.09    -0.269 OA
ATOM     20  ND2 ASN A 133      27.758  31.124  12.009  1.00 18.93    -0.107 N 
ENDBRANCH  17  18
ENDBRANCH  16  17
END_RES ASN A 133
