REMARK VINA RESULT:    -4.898      3.845      6.824
REMARK INTER + INTRA:          -6.498
REMARK INTER:                  -5.184
REMARK INTRA:                  -1.313
REMARK UNBOUND:                -1.313
REMARK SMILES Cc1cn(-c2ccccc2I)nn1
REMARK SMILES IDX 5 1 6 2 7 3 8 4 9 5 10 6 11 7 4 8 1 9 2 10 3 11 13 12 12 13
REMARK H PARENT
REMARK Flexibility Score: inf
ROOT
ATOM      1  C   UNL     1      27.848  35.116   8.973  1.00  0.00     0.080 A 
ATOM      2  C   UNL     1      28.440  34.257   9.874  1.00  0.00     0.029 A 
ATOM      3  C   UNL     1      29.721  33.758   9.688  1.00  0.00     0.002 A 
ATOM      4  C   UNL     1      30.449  34.126   8.561  1.00  0.00     0.001 A 
ATOM      5  C   UNL     1      29.873  34.986   7.646  1.00  0.00     0.017 A 
ATOM      6  C   UNL     1      28.598  35.467   7.855  1.00  0.00     0.039 A 
ATOM      7  I   UNL     1      27.748  36.778   6.438  1.00  0.00    -0.042 I 
ENDROOT
BRANCH   1   8
ATOM      8  N   UNL     1      26.526  35.620   9.181  1.00  0.00    -0.219 N 
ATOM      9  C   UNL     1      22.898  35.761   9.142  1.00  0.00     0.070 C 
ATOM     10  C   UNL     1      24.378  35.938   9.274  1.00  0.00     0.080 A 
ATOM     11  C   UNL     1      25.358  35.064   8.872  1.00  0.00     0.140 A 
ATOM     12  N   UNL     1      25.005  36.996   9.814  1.00  0.00    -0.135 NA
ATOM     13  N   UNL     1      26.290  36.790   9.752  1.00  0.00    -0.062 NA
ENDBRANCH   1   8
TORSDOF 1
BEGIN_RES LYS A 135
REMARK  4 active torsions:
REMARK  status: ('A' for Active; 'I' for Inactive)
REMARK    1  A    between atoms: CA   and  CB  
REMARK    2  A    between atoms: CB   and  CG  
REMARK    3  A    between atoms: CG   and  CD  
REMARK    4  A    between atoms: CD   and  CE  
ROOT
ATOM      1  CA  LYS A 135      33.193  34.663   9.290  1.00 25.02     0.186 C 
ENDROOT
BRANCH   1   2
ATOM      2  CB  LYS A 135      32.060  35.360  10.034  1.00 26.63     0.034 C 
BRANCH   2   3
ATOM      3  CG  LYS A 135      32.407  35.725  11.454  1.00 29.45     0.005 C 
BRANCH   3   4
ATOM      4  CD  LYS A 135      31.145  35.936  12.277  1.00 32.00     0.041 C 
BRANCH   4   5
ATOM      5  CE  LYS A 135      30.894  34.745  13.182  1.00 34.25     0.338 C 
ATOM      6  NZ  LYS A 135      29.435  34.506  13.361  1.00 35.99     0.618 N 
ENDBRANCH   4   5
ENDBRANCH   3   4
ENDBRANCH   2   3
ENDBRANCH   1   2
END_RES LYS A 135
BEGIN_RES TYR A 136
REMARK  2 active torsions:
REMARK  status: ('A' for Active; 'I' for Inactive)
REMARK    5  A    between atoms: CA   and  CB  
REMARK    6  A    between atoms: CB   and  CG  
ROOT
ATOM      7  CA  TYR A 136      36.583  36.399   8.994  1.00 26.14     0.191 C 
ENDROOT
BRANCH   7   8
ATOM      8  CB  TYR A 136      37.367  36.835  10.240  1.00 28.16     0.060 C 
BRANCH   8   9
ATOM      9  CG  TYR A 136      37.184  38.299  10.558  1.00 31.88    -0.020 A 
ATOM     10  CD2 TYR A 136      35.953  38.795  10.993  1.00 32.67    -0.002 A 
ATOM     11  CE2 TYR A 136      35.792  40.157  11.285  1.00 33.89     0.027 A 
ATOM     12  CZ  TYR A 136      36.874  41.029  11.139  1.00 34.34     0.131 A 
ATOM     13  OH  TYR A 136      36.740  42.380  11.428  1.00 35.14    -0.190 OA
ATOM     14  CE1 TYR A 136      38.103  40.553  10.707  1.00 35.01     0.027 A 
ATOM     15  CD1 TYR A 136      38.249  39.196  10.414  1.00 33.57    -0.002 A 
ENDBRANCH   8   9
ENDBRANCH   7   8
END_RES TYR A 136
BEGIN_RES ASN A 133
REMARK  2 active torsions:
REMARK  status: ('A' for Active; 'I' for Inactive)
REMARK    7  A    between atoms: CA   and  CB  
REMARK    8  A    between atoms: CB   and  CG  
ROOT
ATOM     16  CA  ASN A 133      31.225  30.257  11.749  1.00 18.15     0.196 C 
ENDROOT
BRANCH  16  17
ATOM     17  CB  ASN A 133      30.092  31.240  11.460  1.00 18.27     0.126 C 
BRANCH  17  18
ATOM     18  CG  ASN A 133      28.750  30.583  11.357  1.00 18.94     0.276 C 
ATOM     19  OD1 ASN A 133      28.577  29.595  10.641  1.00 18.09    -0.269 OA
ATOM     20  ND2 ASN A 133      27.775  31.133  12.080  1.00 18.93    -0.107 N 
ENDBRANCH  17  18
ENDBRANCH  16  17
END_RES ASN A 133
