REMARK VINA RESULT:    -3.390      8.366     13.474
REMARK INTER + INTRA:          -7.294
REMARK INTER:                  -4.300
REMARK INTRA:                  -2.994
REMARK UNBOUND:                -3.309
REMARK SMILES Cc1cn(CCC2OCCO2)nn1
REMARK SMILES IDX 5 1 4 2 1 3 2 4 3 5 13 6 12 7 6 8 7 9 8 10 11 11 9 12 10 13
REMARK H PARENT
REMARK Flexibility Score: inf
ROOT
ATOM      1  C   UNL     1      34.878  35.827  14.028  1.00  0.00     0.151 C 
ENDROOT
BRANCH   1   2
ATOM      2  N   UNL     1      33.953  36.715  13.373  1.00  0.00    -0.252 N 
ATOM      3  C   UNL     1      31.729  39.574  13.223  1.00  0.00     0.070 C 
ATOM      4  C   UNL     1      32.572  38.362  13.027  1.00  0.00     0.080 A 
ATOM      5  C   UNL     1      33.383  37.769  13.969  1.00  0.00     0.134 A 
ATOM      6  N   UNL     1      32.681  37.645  11.895  1.00  0.00    -0.136 NA
ATOM      7  N   UNL     1      33.523  36.652  12.126  1.00  0.00    -0.067 NA
ENDBRANCH   1   2
BRANCH   1   8
ATOM      8  C   UNL     1      35.122  34.649  13.147  1.00  0.00     0.086 C 
BRANCH   8   9
ATOM      9  C   UNL     1      36.553  34.573  12.653  1.00  0.00     0.251 C 
ATOM     10  O   UNL     1      36.853  33.362  12.082  1.00  0.00    -0.350 OA
ATOM     11  O   UNL     1      37.469  34.832  13.643  1.00  0.00    -0.350 OA
ATOM     12  C   UNL     1      37.952  32.837  12.720  1.00  0.00     0.192 C 
ATOM     13  C   UNL     1      37.932  33.569  14.046  1.00  0.00     0.192 C 
ENDBRANCH   8   9
ENDBRANCH   1   8
TORSDOF 3
BEGIN_RES LYS A 135
REMARK  4 active torsions:
REMARK  status: ('A' for Active; 'I' for Inactive)
REMARK    1  A    between atoms: CA   and  CB  
REMARK    2  A    between atoms: CB   and  CG  
REMARK    3  A    between atoms: CG   and  CD  
REMARK    4  A    between atoms: CD   and  CE  
ROOT
ATOM      1  CA  LYS A 135      33.193  34.663   9.290  1.00 25.02     0.186 C 
ENDROOT
BRANCH   1   2
ATOM      2  CB  LYS A 135      32.060  35.360  10.034  1.00 26.63     0.034 C 
BRANCH   2   3
ATOM      3  CG  LYS A 135      30.707  34.747   9.782  1.00 29.45     0.005 C 
BRANCH   3   4
ATOM      4  CD  LYS A 135      30.488  34.521   8.294  1.00 32.00     0.041 C 
BRANCH   4   5
ATOM      5  CE  LYS A 135      29.059  34.850   7.909  1.00 34.25     0.338 C 
ATOM      6  NZ  LYS A 135      28.560  36.033   8.664  1.00 35.99     0.618 N 
ENDBRANCH   4   5
ENDBRANCH   3   4
ENDBRANCH   2   3
ENDBRANCH   1   2
END_RES LYS A 135
BEGIN_RES TYR A 136
REMARK  2 active torsions:
REMARK  status: ('A' for Active; 'I' for Inactive)
REMARK    5  A    between atoms: CA   and  CB  
REMARK    6  A    between atoms: CB   and  CG  
ROOT
ATOM      7  CA  TYR A 136      36.583  36.399   8.994  1.00 26.14     0.191 C 
ENDROOT
BRANCH   7   8
ATOM      8  CB  TYR A 136      37.367  36.835  10.240  1.00 28.16     0.060 C 
BRANCH   8   9
ATOM      9  CG  TYR A 136      36.747  38.026  10.928  1.00 31.88    -0.020 A 
ATOM     10  CD2 TYR A 136      37.043  38.327  12.260  1.00 32.67    -0.002 A 
ATOM     11  CE2 TYR A 136      36.460  39.435  12.890  1.00 33.89     0.027 A 
ATOM     12  CZ  TYR A 136      35.573  40.249  12.182  1.00 34.34     0.131 A 
ATOM     13  OH  TYR A 136      34.989  41.355  12.784  1.00 35.14    -0.190 OA
ATOM     14  CE1 TYR A 136      35.266  39.964  10.860  1.00 35.01     0.027 A 
ATOM     15  CD1 TYR A 136      35.848  38.854  10.244  1.00 33.57    -0.002 A 
ENDBRANCH   8   9
ENDBRANCH   7   8
END_RES TYR A 136
BEGIN_RES ASN A 133
REMARK  2 active torsions:
REMARK  status: ('A' for Active; 'I' for Inactive)
REMARK    7  A    between atoms: CA   and  CB  
REMARK    8  A    between atoms: CB   and  CG  
ROOT
ATOM     16  CA  ASN A 133      31.225  30.257  11.749  1.00 18.15     0.196 C 
ENDROOT
BRANCH  16  17
ATOM     17  CB  ASN A 133      30.092  31.240  11.460  1.00 18.27     0.126 C 
BRANCH  17  18
ATOM     18  CG  ASN A 133      28.757  30.578  11.317  1.00 18.94     0.276 C 
ATOM     19  OD1 ASN A 133      28.601  29.611  10.569  1.00 18.09    -0.269 OA
ATOM     20  ND2 ASN A 133      27.767  31.100  12.040  1.00 18.93    -0.107 N 
ENDBRANCH  17  18
ENDBRANCH  16  17
END_RES ASN A 133
