REMARK VINA RESULT:    -3.014      8.426     11.554
REMARK INTER + INTRA:          -6.852
REMARK INTER:                  -3.585
REMARK INTRA:                  -3.268
REMARK UNBOUND:                -3.309
REMARK SMILES Cc1cn(CCC2OCCO2)nn1
REMARK SMILES IDX 5 1 4 2 1 3 2 4 3 5 13 6 12 7 6 8 7 9 8 10 11 11 9 12 10 13
REMARK H PARENT
REMARK Flexibility Score: inf
ROOT
ATOM      1  C   UNL     1      24.914  30.930  15.372  1.00  0.00     0.151 C 
ENDROOT
BRANCH   1   2
ATOM      2  N   UNL     1      26.232  30.539  15.797  1.00  0.00    -0.252 N 
ATOM      3  C   UNL     1      29.796  31.035  16.238  1.00  0.00     0.070 C 
ATOM      4  C   UNL     1      28.375  30.593  16.174  1.00  0.00     0.080 A 
ATOM      5  C   UNL     1      27.320  31.305  15.651  1.00  0.00     0.134 A 
ATOM      6  N   UNL     1      27.888  29.421  16.618  1.00  0.00    -0.136 NA
ATOM      7  N   UNL     1      26.587  29.409  16.380  1.00  0.00    -0.067 NA
ENDBRANCH   1   2
BRANCH   1   8
ATOM      8  C   UNL     1      24.285  29.793  14.640  1.00  0.00     0.086 C 
BRANCH   8   9
ATOM      9  C   UNL     1      23.884  30.158  13.225  1.00  0.00     0.251 C 
ATOM     10  O   UNL     1      22.889  31.102  13.183  1.00  0.00    -0.350 OA
ATOM     11  O   UNL     1      23.486  29.068  12.490  1.00  0.00    -0.350 OA
ATOM     12  C   UNL     1      21.846  30.608  12.435  1.00  0.00     0.192 C 
ATOM     13  C   UNL     1      22.083  29.113  12.505  1.00  0.00     0.192 C 
ENDBRANCH   8   9
ENDBRANCH   1   8
TORSDOF 3
BEGIN_RES LYS A 135
REMARK  4 active torsions:
REMARK  status: ('A' for Active; 'I' for Inactive)
REMARK    1  A    between atoms: CA   and  CB  
REMARK    2  A    between atoms: CB   and  CG  
REMARK    3  A    between atoms: CG   and  CD  
REMARK    4  A    between atoms: CD   and  CE  
ROOT
ATOM      1  CA  LYS A 135      33.193  34.663   9.290  1.00 25.02     0.186 C 
ENDROOT
BRANCH   1   2
ATOM      2  CB  LYS A 135      32.060  35.360  10.034  1.00 26.63     0.034 C 
BRANCH   2   3
ATOM      3  CG  LYS A 135      30.839  35.600   9.184  1.00 29.45     0.005 C 
BRANCH   3   4
ATOM      4  CD  LYS A 135      30.252  34.281   8.704  1.00 32.00     0.041 C 
BRANCH   4   5
ATOM      5  CE  LYS A 135      28.752  34.403   8.515  1.00 34.25     0.338 C 
ATOM      6  NZ  LYS A 135      28.016  33.721   9.615  1.00 35.99     0.618 N 
ENDBRANCH   4   5
ENDBRANCH   3   4
ENDBRANCH   2   3
ENDBRANCH   1   2
END_RES LYS A 135
BEGIN_RES TYR A 136
REMARK  2 active torsions:
REMARK  status: ('A' for Active; 'I' for Inactive)
REMARK    5  A    between atoms: CA   and  CB  
REMARK    6  A    between atoms: CB   and  CG  
ROOT
ATOM      7  CA  TYR A 136      36.583  36.399   8.994  1.00 26.14     0.191 C 
ENDROOT
BRANCH   7   8
ATOM      8  CB  TYR A 136      37.367  36.835  10.240  1.00 28.16     0.060 C 
BRANCH   8   9
ATOM      9  CG  TYR A 136      37.279  38.320  10.490  1.00 31.88    -0.020 A 
ATOM     10  CD2 TYR A 136      36.045  38.970  10.565  1.00 32.67    -0.002 A 
ATOM     11  CE2 TYR A 136      35.975  40.350  10.796  1.00 33.89     0.027 A 
ATOM     12  CZ  TYR A 136      37.150  41.088  10.954  1.00 34.34     0.131 A 
ATOM     13  OH  TYR A 136      37.104  42.455  11.190  1.00 35.14    -0.190 OA
ATOM     14  CE1 TYR A 136      38.385  40.460  10.881  1.00 35.01     0.027 A 
ATOM     15  CD1 TYR A 136      38.443  39.085  10.644  1.00 33.57    -0.002 A 
ENDBRANCH   8   9
ENDBRANCH   7   8
END_RES TYR A 136
BEGIN_RES ASN A 133
REMARK  2 active torsions:
REMARK  status: ('A' for Active; 'I' for Inactive)
REMARK    7  A    between atoms: CA   and  CB  
REMARK    8  A    between atoms: CB   and  CG  
ROOT
ATOM     16  CA  ASN A 133      31.225  30.257  11.749  1.00 18.15     0.196 C 
ENDROOT
BRANCH  16  17
ATOM     17  CB  ASN A 133      30.092  31.240  11.460  1.00 18.27     0.126 C 
BRANCH  17  18
ATOM     18  CG  ASN A 133      28.751  30.583  11.356  1.00 18.94     0.276 C 
ATOM     19  OD1 ASN A 133      28.570  29.616  10.613  1.00 18.09    -0.269 OA
ATOM     20  ND2 ASN A 133      27.784  31.109  12.107  1.00 18.93    -0.107 N 
ENDBRANCH  17  18
ENDBRANCH  16  17
END_RES ASN A 133
