REMARK VINA RESULT:    -4.985      0.000      0.000
REMARK INTER + INTRA:          -8.442
REMARK INTER:                  -5.257
REMARK INTRA:                  -3.185
REMARK UNBOUND:                -3.166
REMARK SMILES Cc1cn(-c2cnc3ccccc3c2)nn1
REMARK SMILES IDX 5 1 6 2 7 3 8 4 9 5 10 6 11 7 12 8 13 9 14 10 4 11 1 12 2 13
REMARK SMILES IDX 3 14 16 15 15 16
REMARK H PARENT
REMARK Flexibility Score: inf
ROOT
ATOM      1  C   UNL     1      32.566  34.739  15.365  1.00  0.00     0.085 A 
ATOM      2  C   UNL     1      32.552  35.252  16.631  1.00  0.00     0.140 A 
ATOM      3  N   UNL     1      31.933  34.586  17.627  1.00  0.00    -0.254 NA
ATOM      4  C   UNL     1      31.313  33.406  17.422  1.00  0.00     0.070 A 
ATOM      5  C   UNL     1      30.679  32.718  18.436  1.00  0.00     0.029 A 
ATOM      6  C   UNL     1      30.054  31.510  18.181  1.00  0.00     0.002 A 
ATOM      7  C   UNL     1      30.058  30.968  16.895  1.00  0.00     0.001 A 
ATOM      8  C   UNL     1      30.684  31.647  15.896  1.00  0.00     0.010 A 
ATOM      9  C   UNL     1      31.302  32.848  16.159  1.00  0.00     0.002 A 
ATOM     10  C   UNL     1      31.934  33.531  15.149  1.00  0.00     0.040 A 
ENDROOT
BRANCH   1  11
ATOM     11  N   UNL     1      33.214  35.413  14.267  1.00  0.00    -0.219 N 
ATOM     12  C   UNL     1      33.485  37.975  11.661  1.00  0.00     0.070 C 
ATOM     13  C   UNL     1      33.625  36.848  12.621  1.00  0.00     0.080 A 
ATOM     14  C   UNL     1      32.723  36.481  13.613  1.00  0.00     0.140 A 
ATOM     15  N   UNL     1      34.632  35.961  12.736  1.00  0.00    -0.135 NA
ATOM     16  N   UNL     1      34.377  35.112  13.718  1.00  0.00    -0.062 NA
ENDBRANCH   1  11
TORSDOF 1
BEGIN_RES LYS A 135
REMARK  4 active torsions:
REMARK  status: ('A' for Active; 'I' for Inactive)
REMARK    1  A    between atoms: CA   and  CB  
REMARK    2  A    between atoms: CB   and  CG  
REMARK    3  A    between atoms: CG   and  CD  
REMARK    4  A    between atoms: CD   and  CE  
ROOT
ATOM      1  CA  LYS A 135      33.193  34.663   9.290  1.00 25.02     0.186 C 
ENDROOT
BRANCH   1   2
ATOM      2  CB  LYS A 135      32.060  35.360  10.034  1.00 26.63     0.034 C 
BRANCH   2   3
ATOM      3  CG  LYS A 135      30.846  35.616   9.179  1.00 29.45     0.005 C 
BRANCH   3   4
ATOM      4  CD  LYS A 135      30.318  34.316   8.592  1.00 32.00     0.041 C 
BRANCH   4   5
ATOM      5  CE  LYS A 135      28.803  34.334   8.534  1.00 34.25     0.338 C 
ATOM      6  NZ  LYS A 135      28.211  33.919   9.836  1.00 35.99     0.618 N 
ENDBRANCH   4   5
ENDBRANCH   3   4
ENDBRANCH   2   3
ENDBRANCH   1   2
END_RES LYS A 135
BEGIN_RES TYR A 136
REMARK  2 active torsions:
REMARK  status: ('A' for Active; 'I' for Inactive)
REMARK    5  A    between atoms: CA   and  CB  
REMARK    6  A    between atoms: CB   and  CG  
ROOT
ATOM      7  CA  TYR A 136      36.583  36.399   8.994  1.00 26.14     0.191 C 
ENDROOT
BRANCH   7   8
ATOM      8  CB  TYR A 136      37.367  36.835  10.240  1.00 28.16     0.060 C 
BRANCH   8   9
ATOM      9  CG  TYR A 136      37.016  38.233  10.687  1.00 31.88    -0.020 A 
ATOM     10  CD2 TYR A 136      36.523  39.178   9.785  1.00 32.67    -0.002 A 
ATOM     11  CE2 TYR A 136      36.201  40.474  10.210  1.00 33.89     0.027 A 
ATOM     12  CZ  TYR A 136      36.374  40.828  11.550  1.00 34.34     0.131 A 
ATOM     13  OH  TYR A 136      36.055  42.103  11.995  1.00 35.14    -0.190 OA
ATOM     14  CE1 TYR A 136      36.864  39.902  12.460  1.00 35.01     0.027 A 
ATOM     15  CD1 TYR A 136      37.187  38.616  12.023  1.00 33.57    -0.002 A 
ENDBRANCH   8   9
ENDBRANCH   7   8
END_RES TYR A 136
BEGIN_RES ASN A 133
REMARK  2 active torsions:
REMARK  status: ('A' for Active; 'I' for Inactive)
REMARK    7  A    between atoms: CA   and  CB  
REMARK    8  A    between atoms: CB   and  CG  
ROOT
ATOM     16  CA  ASN A 133      31.225  30.257  11.749  1.00 18.15     0.196 C 
ENDROOT
BRANCH  16  17
ATOM     17  CB  ASN A 133      30.092  31.240  11.460  1.00 18.27     0.126 C 
BRANCH  17  18
ATOM     18  CG  ASN A 133      28.748  30.585  11.373  1.00 18.94     0.276 C 
ATOM     19  OD1 ASN A 133      28.559  29.610  10.643  1.00 18.09    -0.269 OA
ATOM     20  ND2 ASN A 133      27.789  31.122  12.126  1.00 18.93    -0.107 N 
ENDBRANCH  17  18
ENDBRANCH  16  17
END_RES ASN A 133
