REMARK VINA RESULT:    -4.344      2.946      5.007
REMARK INTER + INTRA:          -6.825
REMARK INTER:                  -4.598
REMARK INTRA:                  -2.227
REMARK UNBOUND:                -2.227
REMARK SMILES Cc1ccc(-n2cc(C)nn2)cc1
REMARK SMILES IDX 5 1 4 2 3 3 2 4 1 5 13 6 12 7 6 8 9 9 8 10 7 11 10 12 11 13
REMARK H PARENT
REMARK Flexibility Score: inf
ROOT
ATOM      1  C   UNL     1      30.232  31.711  17.598  1.00  0.00     0.066 A 
ATOM      2  C   UNL     1      30.700  32.880  18.141  1.00  0.00     0.029 A 
ATOM      3  C   UNL     1      31.432  33.755  17.363  1.00  0.00     0.005 A 
ATOM      4  C   UNL     1      31.723  33.507  16.037  1.00  0.00    -0.051 A 
ATOM      5  C   UNL     1      32.513  34.464  15.218  1.00  0.00     0.044 C 
ATOM      6  C   UNL     1      31.240  32.321  15.513  1.00  0.00     0.005 A 
ATOM      7  C   UNL     1      30.504  31.431  16.275  1.00  0.00     0.029 A 
ENDROOT
BRANCH   1   8
ATOM      8  N   UNL     1      29.485  30.806  18.369  1.00  0.00    -0.220 N 
ATOM      9  C   UNL     1      26.645  28.602  18.924  1.00  0.00     0.070 C 
ATOM     10  C   UNL     1      27.901  29.408  18.999  1.00  0.00     0.080 A 
ATOM     11  C   UNL     1      28.332  30.229  17.983  1.00  0.00     0.140 A 
ATOM     12  N   UNL     1      28.798  29.506  19.972  1.00  0.00    -0.135 NA
ATOM     13  N   UNL     1      29.744  30.342  19.593  1.00  0.00    -0.062 NA
ENDBRANCH   1   8
TORSDOF 1
BEGIN_RES LYS A 135
REMARK  4 active torsions:
REMARK  status: ('A' for Active; 'I' for Inactive)
REMARK    1  A    between atoms: CA   and  CB  
REMARK    2  A    between atoms: CB   and  CG  
REMARK    3  A    between atoms: CG   and  CD  
REMARK    4  A    between atoms: CD   and  CE  
ROOT
ATOM      1  CA  LYS A 135      33.193  34.663   9.290  1.00 25.02     0.186 C 
ENDROOT
BRANCH   1   2
ATOM      2  CB  LYS A 135      32.060  35.360  10.034  1.00 26.63     0.034 C 
BRANCH   2   3
ATOM      3  CG  LYS A 135      30.689  34.889   9.622  1.00 29.45     0.005 C 
BRANCH   3   4
ATOM      4  CD  LYS A 135      29.750  34.859  10.818  1.00 32.00     0.041 C 
BRANCH   4   5
ATOM      5  CE  LYS A 135      28.305  34.907  10.361  1.00 34.25     0.338 C 
ATOM      6  NZ  LYS A 135      27.959  33.710   9.545  1.00 35.99     0.618 N 
ENDBRANCH   4   5
ENDBRANCH   3   4
ENDBRANCH   2   3
ENDBRANCH   1   2
END_RES LYS A 135
BEGIN_RES TYR A 136
REMARK  2 active torsions:
REMARK  status: ('A' for Active; 'I' for Inactive)
REMARK    5  A    between atoms: CA   and  CB  
REMARK    6  A    between atoms: CB   and  CG  
ROOT
ATOM      7  CA  TYR A 136      36.583  36.399   8.994  1.00 26.14     0.191 C 
ENDROOT
BRANCH   7   8
ATOM      8  CB  TYR A 136      37.367  36.835  10.240  1.00 28.16     0.060 C 
BRANCH   8   9
ATOM      9  CG  TYR A 136      36.467  37.307  11.356  1.00 31.88    -0.020 A 
ATOM     10  CD2 TYR A 136      35.711  38.474  11.230  1.00 32.67    -0.002 A 
ATOM     11  CE2 TYR A 136      34.880  38.905  12.273  1.00 33.89     0.027 A 
ATOM     12  CZ  TYR A 136      34.805  38.161  13.453  1.00 34.34     0.131 A 
ATOM     13  OH  TYR A 136      33.984  38.565  14.496  1.00 35.14    -0.190 OA
ATOM     14  CE1 TYR A 136      35.551  37.000  13.596  1.00 35.01     0.027 A 
ATOM     15  CD1 TYR A 136      36.380  36.585  12.552  1.00 33.57    -0.002 A 
ENDBRANCH   8   9
ENDBRANCH   7   8
END_RES TYR A 136
BEGIN_RES ASN A 133
REMARK  2 active torsions:
REMARK  status: ('A' for Active; 'I' for Inactive)
REMARK    7  A    between atoms: CA   and  CB  
REMARK    8  A    between atoms: CB   and  CG  
ROOT
ATOM     16  CA  ASN A 133      31.225  30.257  11.749  1.00 18.15     0.196 C 
ENDROOT
BRANCH  16  17
ATOM     17  CB  ASN A 133      30.092  31.240  11.460  1.00 18.27     0.126 C 
BRANCH  17  18
ATOM     18  CG  ASN A 133      28.752  30.582  11.348  1.00 18.94     0.276 C 
ATOM     19  OD1 ASN A 133      28.583  29.596  10.628  1.00 18.09    -0.269 OA
ATOM     20  ND2 ASN A 133      27.772  31.128  12.068  1.00 18.93    -0.107 N 
ENDBRANCH  17  18
ENDBRANCH  16  17
END_RES ASN A 133
