REMARK VINA RESULT:    -3.810      2.406      4.173
REMARK INTER + INTRA:          -7.488
REMARK INTER:                  -5.175
REMARK INTRA:                  -2.313
REMARK UNBOUND:                -3.232
REMARK SMILES Cc1cn(Cc2cccc(Br)c2)nn1
REMARK SMILES IDX 5 1 4 2 1 3 2 4 3 5 14 6 13 7 6 8 7 9 12 10 8 11 10 12 9 13
REMARK SMILES IDX 11 14
REMARK H PARENT
REMARK Flexibility Score: inf
ROOT
ATOM      1  C   UNL     1      33.322  35.797  14.610  1.00  0.00     0.181 C 
ENDROOT
BRANCH   1   2
ATOM      2  N   UNL     1      34.613  35.289  14.223  1.00  0.00    -0.248 N 
ATOM      3  C   UNL     1      37.117  33.530  12.234  1.00  0.00     0.070 C 
ATOM      4  C   UNL     1      36.273  34.287  13.168  1.00  0.00     0.080 A 
ATOM      5  C   UNL     1      34.923  34.550  13.143  1.00  0.00     0.134 A 
ATOM      6  N   UNL     1      36.731  34.893  14.290  1.00  0.00    -0.136 NA
ATOM      7  N   UNL     1      35.722  35.490  14.913  1.00  0.00    -0.067 NA
ENDBRANCH   1   2
BRANCH   1   8
ATOM      8  C   UNL     1      32.614  34.910  15.544  1.00  0.00    -0.025 A 
ATOM      9  C   UNL     1      32.056  33.741  15.049  1.00  0.00     0.006 A 
ATOM     10  C   UNL     1      32.458  35.153  16.891  1.00  0.00     0.021 A 
ATOM     11  C   UNL     1      31.376  32.853  15.855  1.00  0.00     0.002 A 
ATOM     12  C   UNL     1      31.776  34.269  17.709  1.00  0.00     0.018 A 
ATOM     13  C   UNL     1      31.231  33.111  17.188  1.00  0.00     0.016 A 
ATOM     14  Br  UNL     1      31.613  34.690  19.557  1.00  0.00    -0.051 Br
ENDBRANCH   1   8
TORSDOF 2
BEGIN_RES LYS A 135
REMARK  4 active torsions:
REMARK  status: ('A' for Active; 'I' for Inactive)
REMARK    1  A    between atoms: CA   and  CB  
REMARK    2  A    between atoms: CB   and  CG  
REMARK    3  A    between atoms: CG   and  CD  
REMARK    4  A    between atoms: CD   and  CE  
ROOT
ATOM      1  CA  LYS A 135      33.193  34.663   9.290  1.00 25.02     0.186 C 
ENDROOT
BRANCH   1   2
ATOM      2  CB  LYS A 135      32.060  35.360  10.034  1.00 26.63     0.034 C 
BRANCH   2   3
ATOM      3  CG  LYS A 135      30.697  35.079   9.456  1.00 29.45     0.005 C 
BRANCH   3   4
ATOM      4  CD  LYS A 135      29.692  34.801  10.563  1.00 32.00     0.041 C 
BRANCH   4   5
ATOM      5  CE  LYS A 135      30.361  34.878  11.922  1.00 34.25     0.338 C 
ATOM      6  NZ  LYS A 135      29.715  35.910  12.780  1.00 35.99     0.618 N 
ENDBRANCH   4   5
ENDBRANCH   3   4
ENDBRANCH   2   3
ENDBRANCH   1   2
END_RES LYS A 135
BEGIN_RES TYR A 136
REMARK  2 active torsions:
REMARK  status: ('A' for Active; 'I' for Inactive)
REMARK    5  A    between atoms: CA   and  CB  
REMARK    6  A    between atoms: CB   and  CG  
ROOT
ATOM      7  CA  TYR A 136      36.583  36.399   8.994  1.00 26.14     0.191 C 
ENDROOT
BRANCH   7   8
ATOM      8  CB  TYR A 136      37.367  36.835  10.240  1.00 28.16     0.060 C 
BRANCH   8   9
ATOM      9  CG  TYR A 136      36.748  38.027  10.928  1.00 31.88    -0.020 A 
ATOM     10  CD2 TYR A 136      36.603  39.249  10.267  1.00 32.67    -0.002 A 
ATOM     11  CE2 TYR A 136      36.028  40.350  10.915  1.00 33.89     0.027 A 
ATOM     12  CZ  TYR A 136      35.594  40.228  12.237  1.00 34.34     0.131 A 
ATOM     13  OH  TYR A 136      35.015  41.303  12.896  1.00 35.14    -0.190 OA
ATOM     14  CE1 TYR A 136      35.731  39.022  12.909  1.00 35.01     0.027 A 
ATOM     15  CD1 TYR A 136      36.311  37.934  12.255  1.00 33.57    -0.002 A 
ENDBRANCH   8   9
ENDBRANCH   7   8
END_RES TYR A 136
BEGIN_RES ASN A 133
REMARK  2 active torsions:
REMARK  status: ('A' for Active; 'I' for Inactive)
REMARK    7  A    between atoms: CA   and  CB  
REMARK    8  A    between atoms: CB   and  CG  
ROOT
ATOM     16  CA  ASN A 133      31.225  30.257  11.749  1.00 18.15     0.196 C 
ENDROOT
BRANCH  16  17
ATOM     17  CB  ASN A 133      30.092  31.240  11.460  1.00 18.27     0.126 C 
BRANCH  17  18
ATOM     18  CG  ASN A 133      28.756  30.578  11.320  1.00 18.94     0.276 C 
ATOM     19  OD1 ASN A 133      28.597  29.614  10.570  1.00 18.09    -0.269 OA
ATOM     20  ND2 ASN A 133      27.769  31.098  12.050  1.00 18.93    -0.107 N 
ENDBRANCH  17  18
ENDBRANCH  16  17
END_RES ASN A 133
