REMARK VINA RESULT:    -3.411      7.326     12.213
REMARK INTER + INTRA:          -6.732
REMARK INTER:                  -3.665
REMARK INTRA:                  -3.067
REMARK UNBOUND:                -3.121
REMARK SMILES Cc1cn(-c2cccnc2)nn1
REMARK SMILES IDX 1 1 2 2 3 3 4 4 11 5 12 6 5 7 6 8 10 9 7 10 9 11 8 12
REMARK H PARENT
REMARK Flexibility Score: inf
ROOT
ATOM      1  C   UNL     1      42.422  37.367   6.123  1.00  0.00     0.070 C 
ATOM      2  C   UNL     1      41.280  36.918   5.282  1.00  0.00     0.080 A 
ATOM      3  C   UNL     1      40.294  37.706   4.729  1.00  0.00     0.140 A 
ATOM      4  N   UNL     1      39.433  36.938   4.032  1.00  0.00    -0.219 N 
ATOM      5  N   UNL     1      39.881  35.698   4.153  1.00  0.00    -0.062 NA
ATOM      6  N   UNL     1      40.975  35.658   4.890  1.00  0.00    -0.135 NA
ENDROOT
BRANCH   4   7
ATOM      7  C   UNL     1      38.291  37.399   3.323  1.00  0.00     0.085 A 
ATOM      8  C   UNL     1      37.112  37.704   3.965  1.00  0.00     0.031 A 
ATOM      9  C   UNL     1      38.364  37.546   1.955  1.00  0.00     0.139 A 
ATOM     10  C   UNL     1      36.012  38.150   3.261  1.00  0.00     0.022 A 
ATOM     11  N   UNL     1      37.278  37.988   1.254  1.00  0.00    -0.262 NA
ATOM     12  C   UNL     1      36.134  38.281   1.894  1.00  0.00     0.111 A 
ENDBRANCH   4   7
TORSDOF 1
BEGIN_RES LYS A 135
REMARK  4 active torsions:
REMARK  status: ('A' for Active; 'I' for Inactive)
REMARK    1  A    between atoms: CA   and  CB  
REMARK    2  A    between atoms: CB   and  CG  
REMARK    3  A    between atoms: CG   and  CD  
REMARK    4  A    between atoms: CD   and  CE  
ROOT
ATOM      1  CA  LYS A 135      33.193  34.663   9.290  1.00 25.02     0.186 C 
ENDROOT
BRANCH   1   2
ATOM      2  CB  LYS A 135      32.060  35.360  10.034  1.00 26.63     0.034 C 
BRANCH   2   3
ATOM      3  CG  LYS A 135      30.703  34.765   9.759  1.00 29.45     0.005 C 
BRANCH   3   4
ATOM      4  CD  LYS A 135      30.454  34.664   8.262  1.00 32.00     0.041 C 
BRANCH   4   5
ATOM      5  CE  LYS A 135      29.015  35.016   7.937  1.00 34.25     0.338 C 
ATOM      6  NZ  LYS A 135      28.904  35.618   6.579  1.00 35.99     0.618 N 
ENDBRANCH   4   5
ENDBRANCH   3   4
ENDBRANCH   2   3
ENDBRANCH   1   2
END_RES LYS A 135
BEGIN_RES TYR A 136
REMARK  2 active torsions:
REMARK  status: ('A' for Active; 'I' for Inactive)
REMARK    5  A    between atoms: CA   and  CB  
REMARK    6  A    between atoms: CB   and  CG  
ROOT
ATOM      7  CA  TYR A 136      36.583  36.399   8.994  1.00 26.14     0.191 C 
ENDROOT
BRANCH   7   8
ATOM      8  CB  TYR A 136      37.367  36.835  10.240  1.00 28.16     0.060 C 
BRANCH   8   9
ATOM      9  CG  TYR A 136      37.202  38.304  10.545  1.00 31.88    -0.020 A 
ATOM     10  CD2 TYR A 136      37.276  39.265   9.534  1.00 32.67    -0.002 A 
ATOM     11  CE2 TYR A 136      37.123  40.627   9.828  1.00 33.89     0.027 A 
ATOM     12  CZ  TYR A 136      36.895  41.030  11.146  1.00 34.34     0.131 A 
ATOM     13  OH  TYR A 136      36.733  42.373  11.459  1.00 35.14    -0.190 OA
ATOM     14  CE1 TYR A 136      36.819  40.089  12.162  1.00 35.01     0.027 A 
ATOM     15  CD1 TYR A 136      36.980  38.736  11.858  1.00 33.57    -0.002 A 
ENDBRANCH   8   9
ENDBRANCH   7   8
END_RES TYR A 136
BEGIN_RES ASN A 133
REMARK  2 active torsions:
REMARK  status: ('A' for Active; 'I' for Inactive)
REMARK    7  A    between atoms: CA   and  CB  
REMARK    8  A    between atoms: CB   and  CG  
ROOT
ATOM     16  CA  ASN A 133      31.225  30.257  11.749  1.00 18.15     0.196 C 
ENDROOT
BRANCH  16  17
ATOM     17  CB  ASN A 133      30.092  31.240  11.460  1.00 18.27     0.126 C 
BRANCH  17  18
ATOM     18  CG  ASN A 133      28.745  30.589  11.399  1.00 18.94     0.276 C 
ATOM     19  OD1 ASN A 133      28.549  29.591  10.703  1.00 18.09    -0.269 OA
ATOM     20  ND2 ASN A 133      27.790  31.156  12.136  1.00 18.93    -0.107 N 
ENDBRANCH  17  18
ENDBRANCH  16  17
END_RES ASN A 133
