REMARK VINA RESULT:    -4.719      3.085      4.800
REMARK INTER + INTRA:          -7.176
REMARK INTER:                  -4.002
REMARK INTRA:                  -3.174
REMARK UNBOUND:                -2.181
REMARK SMILES Cc1cn(-c2ccccc2)nn1
REMARK SMILES IDX 5 1 6 2 7 3 8 4 9 5 10 6 4 7 1 8 2 9 3 10 12 11 11 12
REMARK H PARENT
REMARK Flexibility Score: inf
ROOT
ATOM      1  C   UNL     1      30.235  31.790  17.530  1.00  0.00     0.066 A 
ATOM      2  C   UNL     1      30.710  32.960  18.090  1.00  0.00     0.028 A 
ATOM      3  C   UNL     1      31.471  33.854  17.376  1.00  0.00     0.002 A 
ATOM      4  C   UNL     1      31.796  33.617  16.055  1.00  0.00     0.000 A 
ATOM      5  C   UNL     1      31.321  32.449  15.495  1.00  0.00     0.002 A 
ATOM      6  C   UNL     1      30.557  31.550  16.212  1.00  0.00     0.028 A 
ENDROOT
BRANCH   1   7
ATOM      7  N   UNL     1      29.443  30.853  18.263  1.00  0.00    -0.220 N 
ATOM      8  C   UNL     1      26.580  28.606  18.744  1.00  0.00     0.070 C 
ATOM      9  C   UNL     1      27.822  29.424  18.834  1.00  0.00     0.080 A 
ATOM     10  C   UNL     1      28.301  30.277  17.846  1.00  0.00     0.140 A 
ATOM     11  N   UNL     1      28.715  29.523  19.828  1.00  0.00    -0.135 NA
ATOM     12  N   UNL     1      29.666  30.371  19.475  1.00  0.00    -0.062 NA
ENDBRANCH   1   7
TORSDOF 1
BEGIN_RES LYS A 135
REMARK  4 active torsions:
REMARK  status: ('A' for Active; 'I' for Inactive)
REMARK    1  A    between atoms: CA   and  CB  
REMARK    2  A    between atoms: CB   and  CG  
REMARK    3  A    between atoms: CG   and  CD  
REMARK    4  A    between atoms: CD   and  CE  
ROOT
ATOM      1  CA  LYS A 135      33.193  34.663   9.290  1.00 25.02     0.186 C 
ENDROOT
BRANCH   1   2
ATOM      2  CB  LYS A 135      32.060  35.360  10.034  1.00 26.63     0.034 C 
BRANCH   2   3
ATOM      3  CG  LYS A 135      30.731  34.661   9.900  1.00 29.45     0.005 C 
BRANCH   3   4
ATOM      4  CD  LYS A 135      30.326  34.555   8.438  1.00 32.00     0.041 C 
BRANCH   4   5
ATOM      5  CE  LYS A 135      28.816  34.530   8.304  1.00 34.25     0.338 C 
ATOM      6  NZ  LYS A 135      28.188  33.820   9.453  1.00 35.99     0.618 N 
ENDBRANCH   4   5
ENDBRANCH   3   4
ENDBRANCH   2   3
ENDBRANCH   1   2
END_RES LYS A 135
BEGIN_RES TYR A 136
REMARK  2 active torsions:
REMARK  status: ('A' for Active; 'I' for Inactive)
REMARK    5  A    between atoms: CA   and  CB  
REMARK    6  A    between atoms: CB   and  CG  
ROOT
ATOM      7  CA  TYR A 136      36.583  36.399   8.994  1.00 26.14     0.191 C 
ENDROOT
BRANCH   7   8
ATOM      8  CB  TYR A 136      37.367  36.835  10.240  1.00 28.16     0.060 C 
BRANCH   8   9
ATOM      9  CG  TYR A 136      37.203  38.304  10.544  1.00 31.88    -0.020 A 
ATOM     10  CD2 TYR A 136      37.753  38.869  11.697  1.00 32.67    -0.002 A 
ATOM     11  CE2 TYR A 136      37.594  40.235  11.971  1.00 33.89     0.027 A 
ATOM     12  CZ  TYR A 136      36.877  41.041  11.083  1.00 34.34     0.131 A 
ATOM     13  OH  TYR A 136      36.713  42.397  11.331  1.00 35.14    -0.190 OA
ATOM     14  CE1 TYR A 136      36.323  40.496   9.934  1.00 35.01     0.027 A 
ATOM     15  CD1 TYR A 136      36.483  39.134   9.675  1.00 33.57    -0.002 A 
ENDBRANCH   8   9
ENDBRANCH   7   8
END_RES TYR A 136
BEGIN_RES ASN A 133
REMARK  2 active torsions:
REMARK  status: ('A' for Active; 'I' for Inactive)
REMARK    7  A    between atoms: CA   and  CB  
REMARK    8  A    between atoms: CB   and  CG  
ROOT
ATOM     16  CA  ASN A 133      31.225  30.257  11.749  1.00 18.15     0.196 C 
ENDROOT
BRANCH  16  17
ATOM     17  CB  ASN A 133      30.092  31.240  11.460  1.00 18.27     0.126 C 
BRANCH  17  18
ATOM     18  CG  ASN A 133      28.752  30.582  11.347  1.00 18.94     0.276 C 
ATOM     19  OD1 ASN A 133      28.582  29.600  10.621  1.00 18.09    -0.269 OA
ATOM     20  ND2 ASN A 133      27.774  31.123  12.071  1.00 18.93    -0.107 N 
ENDBRANCH  17  18
ENDBRANCH  16  17
END_RES ASN A 133
