REMARK VINA RESULT:    -5.177      0.000      0.000
REMARK INTER + INTRA:         -10.388
REMARK INTER:                  -6.380
REMARK INTRA:                  -4.007
REMARK UNBOUND:                -3.546
REMARK SMILES Cc1cn(CC(O)CCc2ccccc2)nn1
REMARK SMILES IDX 8 1 6 2 5 3 4 4 1 5 2 6 3 7 17 8 16 9 7 10 9 12 10 13 11 14
REMARK SMILES IDX 15 15 12 16 14 17 13 18
REMARK H PARENT 7 11
REMARK Flexibility Score: inf
ROOT
ATOM      1  C   UNL     1      37.156  34.078  12.163  1.00  0.00     0.038 C 
ENDROOT
BRANCH   1   2
ATOM      2  C   UNL     1      38.192  33.124  12.711  1.00  0.00     0.136 C 
BRANCH   2   3
ATOM      3  C   UNL     1      39.542  33.804  12.792  1.00  0.00     0.177 C 
BRANCH   3   4
ATOM      4  N   UNL     1      39.534  34.825  13.814  1.00  0.00    -0.250 N 
ATOM      5  C   UNL     1      39.724  38.297  14.962  1.00  0.00     0.070 C 
ATOM      6  C   UNL     1      39.617  36.819  14.746  1.00  0.00     0.080 A 
ATOM      7  C   UNL     1      39.672  36.147  13.555  1.00  0.00     0.134 A 
ATOM      8  N   UNL     1      39.448  35.899  15.702  1.00  0.00    -0.136 NA
ATOM      9  N   UNL     1      39.401  34.718  15.116  1.00  0.00    -0.067 NA
ENDBRANCH   3   4
ENDBRANCH   2   3
BRANCH   2  10
ATOM     10  O   UNL     1      37.774  32.623  13.919  1.00  0.00    -0.391 OA
ATOM     11  H   UNL     1      36.792  32.620  14.042  1.00  0.00     0.211 HD
ENDBRANCH   2  10
ENDBRANCH   1   2
BRANCH   1  12
ATOM     12  C   UNL     1      35.812  33.926  12.812  1.00  0.00     0.038 C 
BRANCH  12  13
ATOM     13  C   UNL     1      35.384  35.258  13.292  1.00  0.00    -0.048 A 
ATOM     14  C   UNL     1      36.053  35.833  14.362  1.00  0.00     0.004 A 
ATOM     15  C   UNL     1      34.347  35.966  12.730  1.00  0.00     0.004 A 
ATOM     16  C   UNL     1      35.674  37.075  14.829  1.00  0.00     0.000 A 
ATOM     17  C   UNL     1      33.974  37.210  13.204  1.00  0.00     0.000 A 
ATOM     18  C   UNL     1      34.634  37.789  14.268  1.00  0.00     0.000 A 
ENDBRANCH  12  13
ENDBRANCH   1  12
TORSDOF 6
BEGIN_RES LYS A 135
REMARK  4 active torsions:
REMARK  status: ('A' for Active; 'I' for Inactive)
REMARK    1  A    between atoms: CA   and  CB  
REMARK    2  A    between atoms: CB   and  CG  
REMARK    3  A    between atoms: CG   and  CD  
REMARK    4  A    between atoms: CD   and  CE  
ROOT
ATOM      1  CA  LYS A 135      33.193  34.663   9.290  1.00 25.02     0.186 C 
ENDROOT
BRANCH   1   2
ATOM      2  CB  LYS A 135      32.060  35.360  10.034  1.00 26.63     0.034 C 
BRANCH   2   3
ATOM      3  CG  LYS A 135      30.849  35.623   9.177  1.00 29.45     0.005 C 
BRANCH   3   4
ATOM      4  CD  LYS A 135      30.296  34.323   8.615  1.00 32.00     0.041 C 
BRANCH   4   5
ATOM      5  CE  LYS A 135      28.791  34.411   8.450  1.00 34.25     0.338 C 
ATOM      6  NZ  LYS A 135      28.087  33.756   9.587  1.00 35.99     0.618 N 
ENDBRANCH   4   5
ENDBRANCH   3   4
ENDBRANCH   2   3
ENDBRANCH   1   2
END_RES LYS A 135
BEGIN_RES TYR A 136
REMARK  2 active torsions:
REMARK  status: ('A' for Active; 'I' for Inactive)
REMARK    5  A    between atoms: CA   and  CB  
REMARK    6  A    between atoms: CB   and  CG  
ROOT
ATOM      7  CA  TYR A 136      36.583  36.399   8.994  1.00 26.14     0.191 C 
ENDROOT
BRANCH   7   8
ATOM      8  CB  TYR A 136      37.367  36.835  10.240  1.00 28.16     0.060 C 
BRANCH   8   9
ATOM      9  CG  TYR A 136      36.844  38.119  10.835  1.00 31.88    -0.020 A 
ATOM     10  CD2 TYR A 136      37.450  38.699  11.952  1.00 32.67    -0.002 A 
ATOM     11  CE2 TYR A 136      36.955  39.891  12.497  1.00 33.89     0.027 A 
ATOM     12  CZ  TYR A 136      35.844  40.509  11.920  1.00 34.34     0.131 A 
ATOM     13  OH  TYR A 136      35.341  41.694  12.439  1.00 35.14    -0.190 OA
ATOM     14  CE1 TYR A 136      35.228  39.947  10.811  1.00 35.01     0.027 A 
ATOM     15  CD1 TYR A 136      35.726  38.756  10.280  1.00 33.57    -0.002 A 
ENDBRANCH   8   9
ENDBRANCH   7   8
END_RES TYR A 136
BEGIN_RES ASN A 133
REMARK  2 active torsions:
REMARK  status: ('A' for Active; 'I' for Inactive)
REMARK    7  A    between atoms: CA   and  CB  
REMARK    8  A    between atoms: CB   and  CG  
ROOT
ATOM     16  CA  ASN A 133      31.225  30.257  11.749  1.00 18.15     0.196 C 
ENDROOT
BRANCH  16  17
ATOM     17  CB  ASN A 133      30.092  31.240  11.460  1.00 18.27     0.126 C 
BRANCH  17  18
ATOM     18  CG  ASN A 133      28.751  30.583  11.355  1.00 18.94     0.276 C 
ATOM     19  OD1 ASN A 133      28.574  29.606  10.624  1.00 18.09    -0.269 OA
ATOM     20  ND2 ASN A 133      27.780  31.119  12.093  1.00 18.93    -0.107 N 
ENDBRANCH  17  18
ENDBRANCH  16  17
END_RES ASN A 133
