REMARK VINA RESULT:    -3.860      3.351      4.206
REMARK INTER + INTRA:          -7.550
REMARK INTER:                  -4.325
REMARK INTRA:                  -3.226
REMARK UNBOUND:                -3.239
REMARK SMILES Cc1cn(Cc2ccc(Br)cc2)nn1
REMARK SMILES IDX 5 1 4 2 1 3 2 4 3 5 14 6 13 7 6 8 7 9 12 10 8 11 11 12 9 13
REMARK SMILES IDX 10 14
REMARK H PARENT
REMARK Flexibility Score: inf
ROOT
ATOM      1  C   UNL     1      38.855  35.294  16.390  1.00  0.00     0.181 C 
ENDROOT
BRANCH   1   2
ATOM      2  N   UNL     1      37.980  34.884  15.285  1.00  0.00    -0.248 N 
ATOM      3  C   UNL     1      34.968  34.944  13.167  1.00  0.00     0.070 C 
ATOM      4  C   UNL     1      36.284  34.714  13.859  1.00  0.00     0.080 A 
ATOM      5  C   UNL     1      36.768  35.378  14.972  1.00  0.00     0.134 A 
ATOM      6  N   UNL     1      37.240  33.828  13.536  1.00  0.00    -0.136 NA
ATOM      7  N   UNL     1      38.231  33.952  14.396  1.00  0.00    -0.067 NA
ENDBRANCH   1   2
BRANCH   1   8
ATOM      8  C   UNL     1      38.483  34.549  17.613  1.00  0.00    -0.026 A 
ATOM      9  C   UNL     1      37.659  35.143  18.537  1.00  0.00     0.007 A 
ATOM     10  C   UNL     1      38.947  33.276  17.842  1.00  0.00     0.007 A 
ATOM     11  C   UNL     1      37.328  34.428  19.665  1.00  0.00     0.016 A 
ATOM     12  C   UNL     1      38.596  32.573  18.996  1.00  0.00     0.016 A 
ATOM     13  C   UNL     1      37.771  33.152  19.933  1.00  0.00     0.017 A 
ATOM     14  Br  UNL     1      37.316  32.166  21.489  1.00  0.00    -0.051 Br
ENDBRANCH   1   8
TORSDOF 2
BEGIN_RES LYS A 135
REMARK  4 active torsions:
REMARK  status: ('A' for Active; 'I' for Inactive)
REMARK    1  A    between atoms: CA   and  CB  
REMARK    2  A    between atoms: CB   and  CG  
REMARK    3  A    between atoms: CG   and  CD  
REMARK    4  A    between atoms: CD   and  CE  
ROOT
ATOM      1  CA  LYS A 135      33.193  34.663   9.290  1.00 25.02     0.186 C 
ENDROOT
BRANCH   1   2
ATOM      2  CB  LYS A 135      32.060  35.360  10.034  1.00 26.63     0.034 C 
BRANCH   2   3
ATOM      3  CG  LYS A 135      30.851  35.630   9.175  1.00 29.45     0.005 C 
BRANCH   3   4
ATOM      4  CD  LYS A 135      30.318  34.337   8.578  1.00 32.00     0.041 C 
BRANCH   4   5
ATOM      5  CE  LYS A 135      28.950  34.012   9.145  1.00 34.25     0.338 C 
ATOM      6  NZ  LYS A 135      27.870  34.635   8.330  1.00 35.99     0.618 N 
ENDBRANCH   4   5
ENDBRANCH   3   4
ENDBRANCH   2   3
ENDBRANCH   1   2
END_RES LYS A 135
BEGIN_RES TYR A 136
REMARK  2 active torsions:
REMARK  status: ('A' for Active; 'I' for Inactive)
REMARK    5  A    between atoms: CA   and  CB  
REMARK    6  A    between atoms: CB   and  CG  
ROOT
ATOM      7  CA  TYR A 136      36.583  36.399   8.994  1.00 26.14     0.191 C 
ENDROOT
BRANCH   7   8
ATOM      8  CB  TYR A 136      37.367  36.835  10.240  1.00 28.16     0.060 C 
BRANCH   8   9
ATOM      9  CG  TYR A 136      37.160  38.292  10.575  1.00 31.88    -0.020 A 
ATOM     10  CD2 TYR A 136      36.458  39.139   9.716  1.00 32.67    -0.002 A 
ATOM     11  CE2 TYR A 136      36.273  40.491  10.035  1.00 33.89     0.027 A 
ATOM     12  CZ  TYR A 136      36.797  41.000  11.226  1.00 34.34     0.131 A 
ATOM     13  OH  TYR A 136      36.620  42.334  11.567  1.00 35.14    -0.190 OA
ATOM     14  CE1 TYR A 136      37.498  40.173  12.091  1.00 35.01     0.027 A 
ATOM     15  CD1 TYR A 136      37.681  38.830  11.759  1.00 33.57    -0.002 A 
ENDBRANCH   8   9
ENDBRANCH   7   8
END_RES TYR A 136
BEGIN_RES ASN A 133
REMARK  2 active torsions:
REMARK  status: ('A' for Active; 'I' for Inactive)
REMARK    7  A    between atoms: CA   and  CB  
REMARK    8  A    between atoms: CB   and  CG  
ROOT
ATOM     16  CA  ASN A 133      31.225  30.257  11.749  1.00 18.15     0.196 C 
ENDROOT
BRANCH  16  17
ATOM     17  CB  ASN A 133      30.092  31.240  11.460  1.00 18.27     0.126 C 
BRANCH  17  18
ATOM     18  CG  ASN A 133      28.755  30.579  11.328  1.00 18.94     0.276 C 
ATOM     19  OD1 ASN A 133      28.602  29.582  10.621  1.00 18.09    -0.269 OA
ATOM     20  ND2 ASN A 133      27.759  31.137  12.016  1.00 18.93    -0.107 N 
ENDBRANCH  17  18
ENDBRANCH  16  17
END_RES ASN A 133
