REMARK VINA RESULT:    -3.363      6.153      7.943
REMARK INTER + INTRA:          -7.533
REMARK INTER:                  -3.952
REMARK INTRA:                  -3.580
REMARK UNBOUND:                -3.384
REMARK SMILES COCC(C(N)=O)n1cc(C)nn1
REMARK SMILES IDX 3 1 4 2 8 3 11 4 10 5 9 6 12 7 13 8 5 9 7 10 6 11 2 14 1 15
REMARK H PARENT 6 12 6 13
REMARK Flexibility Score: inf
ROOT
ATOM      1  C   UNL     1      38.213  34.265  15.288  1.00  0.00     0.197 C 
ENDROOT
BRANCH   1   2
ATOM      2  C   UNL     1      37.937  34.648  13.840  1.00  0.00     0.223 C 
BRANCH   2   3
ATOM      3  N   UNL     1      39.144  35.077  13.173  1.00  0.00    -0.237 N 
ATOM      4  C   UNL     1      41.591  37.282  11.614  1.00  0.00     0.070 C 
ATOM      5  C   UNL     1      40.767  36.176  12.194  1.00  0.00     0.080 A 
ATOM      6  C   UNL     1      39.536  36.300  12.789  1.00  0.00     0.135 A 
ATOM      7  N   UNL     1      41.072  34.863  12.243  1.00  0.00    -0.136 NA
ATOM      8  N   UNL     1      40.103  34.214  12.826  1.00  0.00    -0.066 NA
ENDBRANCH   2   3
BRANCH   2   9
ATOM      9  C   UNL     1      37.287  33.514  13.179  1.00  0.00     0.244 C 
ATOM     10  O   UNL     1      36.289  33.722  12.442  1.00  0.00    -0.273 OA
ATOM     11  N   UNL     1      37.755  32.188  13.347  1.00  0.00    -0.368 N 
ATOM     12  H   UNL     1      38.722  31.947  13.666  1.00  0.00     0.159 HD
ATOM     13  H   UNL     1      37.140  31.345  13.156  1.00  0.00     0.159 HD
ENDBRANCH   2   9
ENDBRANCH   1   2
BRANCH   1  14
ATOM     14  O   UNL     1      38.150  35.422  16.058  1.00  0.00    -0.382 OA
ATOM     15  C   UNL     1      39.348  35.561  16.777  1.00  0.00     0.195 C 
ENDBRANCH   1  14
TORSDOF 4
BEGIN_RES LYS A 135
REMARK  4 active torsions:
REMARK  status: ('A' for Active; 'I' for Inactive)
REMARK    1  A    between atoms: CA   and  CB  
REMARK    2  A    between atoms: CB   and  CG  
REMARK    3  A    between atoms: CG   and  CD  
REMARK    4  A    between atoms: CD   and  CE  
ROOT
ATOM      1  CA  LYS A 135      33.193  34.663   9.290  1.00 25.02     0.186 C 
ENDROOT
BRANCH   1   2
ATOM      2  CB  LYS A 135      32.060  35.360  10.034  1.00 26.63     0.034 C 
BRANCH   2   3
ATOM      3  CG  LYS A 135      30.856  35.640   9.172  1.00 29.45     0.005 C 
BRANCH   3   4
ATOM      4  CD  LYS A 135      30.312  34.352   8.575  1.00 32.00     0.041 C 
BRANCH   4   5
ATOM      5  CE  LYS A 135      28.803  34.421   8.443  1.00 34.25     0.338 C 
ATOM      6  NZ  LYS A 135      28.132  33.767   9.601  1.00 35.99     0.618 N 
ENDBRANCH   4   5
ENDBRANCH   3   4
ENDBRANCH   2   3
ENDBRANCH   1   2
END_RES LYS A 135
BEGIN_RES TYR A 136
REMARK  2 active torsions:
REMARK  status: ('A' for Active; 'I' for Inactive)
REMARK    5  A    between atoms: CA   and  CB  
REMARK    6  A    between atoms: CB   and  CG  
ROOT
ATOM      7  CA  TYR A 136      36.583  36.399   8.994  1.00 26.14     0.191 C 
ENDROOT
BRANCH   7   8
ATOM      8  CB  TYR A 136      37.367  36.835  10.240  1.00 28.16     0.060 C 
BRANCH   8   9
ATOM      9  CG  TYR A 136      37.289  38.322  10.483  1.00 31.88    -0.020 A 
ATOM     10  CD2 TYR A 136      36.061  38.963  10.660  1.00 32.67    -0.002 A 
ATOM     11  CE2 TYR A 136      36.000  40.345  10.884  1.00 33.89     0.027 A 
ATOM     12  CZ  TYR A 136      37.178  41.093  10.931  1.00 34.34     0.131 A 
ATOM     13  OH  TYR A 136      37.142  42.462  11.158  1.00 35.14    -0.190 OA
ATOM     14  CE1 TYR A 136      38.407  40.473  10.756  1.00 35.01     0.027 A 
ATOM     15  CD1 TYR A 136      38.455  39.097  10.527  1.00 33.57    -0.002 A 
ENDBRANCH   8   9
ENDBRANCH   7   8
END_RES TYR A 136
BEGIN_RES ASN A 133
REMARK  2 active torsions:
REMARK  status: ('A' for Active; 'I' for Inactive)
REMARK    7  A    between atoms: CA   and  CB  
REMARK    8  A    between atoms: CB   and  CG  
ROOT
ATOM     16  CA  ASN A 133      31.225  30.257  11.749  1.00 18.15     0.196 C 
ENDROOT
BRANCH  16  17
ATOM     17  CB  ASN A 133      30.092  31.240  11.460  1.00 18.27     0.126 C 
BRANCH  17  18
ATOM     18  CG  ASN A 133      28.751  30.583  11.354  1.00 18.94     0.276 C 
ATOM     19  OD1 ASN A 133      28.577  29.601  10.629  1.00 18.09    -0.269 OA
ATOM     20  ND2 ASN A 133      27.777  31.124  12.084  1.00 18.93    -0.107 N 
ENDBRANCH  17  18
ENDBRANCH  16  17
END_RES ASN A 133
