REMARK VINA RESULT:    -5.301      1.823      2.897
REMARK INTER + INTRA:          -7.253
REMARK INTER:                  -4.122
REMARK INTRA:                  -3.131
REMARK UNBOUND:                -1.642
REMARK SMILES Cc1cn(C2CCCCC2)nn1
REMARK SMILES IDX 5 1 6 2 7 3 8 4 9 5 10 6 4 7 1 8 2 9 3 10 12 11 11 12
REMARK H PARENT
REMARK Flexibility Score: inf
ROOT
ATOM      1  C   UNL     1      38.202  33.851  13.139  1.00  0.00     0.109 C 
ATOM      2  C   UNL     1      37.094  34.363  12.278  1.00  0.00     0.027 C 
ATOM      3  C   UNL     1      35.733  34.250  12.929  1.00  0.00     0.002 C 
ATOM      4  C   UNL     1      35.682  35.113  14.166  1.00  0.00     0.000 C 
ATOM      5  C   UNL     1      37.042  35.383  14.724  1.00  0.00     0.002 C 
ATOM      6  C   UNL     1      37.986  34.205  14.588  1.00  0.00     0.027 C 
ENDROOT
BRANCH   1   7
ATOM      7  N   UNL     1      39.473  34.355  12.648  1.00  0.00    -0.249 N 
ATOM      8  C   UNL     1      43.051  34.447  11.975  1.00  0.00     0.070 C 
ATOM      9  C   UNL     1      41.583  34.689  12.101  1.00  0.00     0.080 A 
ATOM     10  C   UNL     1      40.690  33.841  12.712  1.00  0.00     0.134 A 
ATOM     11  N   UNL     1      40.853  35.730  11.669  1.00  0.00    -0.136 NA
ATOM     12  N   UNL     1      39.594  35.521  12.000  1.00  0.00    -0.067 NA
ENDBRANCH   1   7
TORSDOF 1
BEGIN_RES LYS A 135
REMARK  4 active torsions:
REMARK  status: ('A' for Active; 'I' for Inactive)
REMARK    1  A    between atoms: CA   and  CB  
REMARK    2  A    between atoms: CB   and  CG  
REMARK    3  A    between atoms: CG   and  CD  
REMARK    4  A    between atoms: CD   and  CE  
ROOT
ATOM      1  CA  LYS A 135      33.193  34.663   9.290  1.00 25.02     0.186 C 
ENDROOT
BRANCH   1   2
ATOM      2  CB  LYS A 135      32.060  35.360  10.034  1.00 26.63     0.034 C 
BRANCH   2   3
ATOM      3  CG  LYS A 135      30.756  34.606   9.989  1.00 29.45     0.005 C 
BRANCH   3   4
ATOM      4  CD  LYS A 135      30.320  34.372   8.551  1.00 32.00     0.041 C 
BRANCH   4   5
ATOM      5  CE  LYS A 135      28.818  34.534   8.417  1.00 34.25     0.338 C 
ATOM      6  NZ  LYS A 135      28.100  33.787   9.487  1.00 35.99     0.618 N 
ENDBRANCH   4   5
ENDBRANCH   3   4
ENDBRANCH   2   3
ENDBRANCH   1   2
END_RES LYS A 135
BEGIN_RES TYR A 136
REMARK  2 active torsions:
REMARK  status: ('A' for Active; 'I' for Inactive)
REMARK    5  A    between atoms: CA   and  CB  
REMARK    6  A    between atoms: CB   and  CG  
ROOT
ATOM      7  CA  TYR A 136      36.583  36.399   8.994  1.00 26.14     0.191 C 
ENDROOT
BRANCH   7   8
ATOM      8  CB  TYR A 136      37.367  36.835  10.240  1.00 28.16     0.060 C 
BRANCH   8   9
ATOM      9  CG  TYR A 136      36.754  38.034  10.921  1.00 31.88    -0.020 A 
ATOM     10  CD2 TYR A 136      36.800  38.179  12.309  1.00 32.67    -0.002 A 
ATOM     11  CE2 TYR A 136      36.226  39.295  12.933  1.00 33.89     0.027 A 
ATOM     12  CZ  TYR A 136      35.600  40.276  12.159  1.00 34.34     0.131 A 
ATOM     13  OH  TYR A 136      35.031  41.393  12.754  1.00 35.14    -0.190 OA
ATOM     14  CE1 TYR A 136      35.544  40.147  10.779  1.00 35.01     0.027 A 
ATOM     15  CD1 TYR A 136      36.113  39.028  10.170  1.00 33.57    -0.002 A 
ENDBRANCH   8   9
ENDBRANCH   7   8
END_RES TYR A 136
BEGIN_RES ASN A 133
REMARK  2 active torsions:
REMARK  status: ('A' for Active; 'I' for Inactive)
REMARK    7  A    between atoms: CA   and  CB  
REMARK    8  A    between atoms: CB   and  CG  
ROOT
ATOM     16  CA  ASN A 133      31.225  30.257  11.749  1.00 18.15     0.196 C 
ENDROOT
BRANCH  16  17
ATOM     17  CB  ASN A 133      30.092  31.240  11.460  1.00 18.27     0.126 C 
BRANCH  17  18
ATOM     18  CG  ASN A 133      28.756  30.578  11.319  1.00 18.94     0.276 C 
ATOM     19  OD1 ASN A 133      28.599  29.611  10.572  1.00 18.09    -0.269 OA
ATOM     20  ND2 ASN A 133      27.768  31.101  12.044  1.00 18.93    -0.107 N 
ENDBRANCH  17  18
ENDBRANCH  16  17
END_RES ASN A 133
