REMARK VINA RESULT:    -7.528      1.313      4.045
REMARK INTER + INTRA:         -10.239
REMARK INTER:                  -7.160
REMARK INTRA:                  -3.079
REMARK UNBOUND:                -1.391
REMARK SMILES Cc1cn(C(c2ccccc2)c2ccccc2)nn1
REMARK SMILES IDX 5 1 4 2 1 3 2 4 3 5 19 6 18 7 6 8 7 9 11 10 8 11 10 12 9 13
REMARK SMILES IDX 12 14 13 15 17 16 14 17 16 18 15 19
REMARK H PARENT
REMARK Flexibility Score: inf
ROOT
ATOM      1  C   UNL     1      33.347  36.025  14.444  1.00  0.00     0.169 C 
ENDROOT
BRANCH   1   2
ATOM      2  N   UNL     1      32.365  34.952  14.585  1.00  0.00    -0.240 N 
ATOM      3  C   UNL     1      30.796  31.981  16.022  1.00  0.00     0.070 C 
ATOM      4  C   UNL     1      31.240  33.167  15.283  1.00  0.00     0.080 A 
ATOM      5  C   UNL     1      32.348  33.976  15.511  1.00  0.00     0.135 A 
ATOM      6  N   UNL     1      30.631  33.703  14.210  1.00  0.00    -0.136 NA
ATOM      7  N   UNL     1      31.313  34.759  13.813  1.00  0.00    -0.066 NA
ENDBRANCH   1   2
BRANCH   1   8
ATOM      8  C   UNL     1      32.935  37.068  13.480  1.00  0.00    -0.019 A 
ATOM      9  C   UNL     1      33.061  36.938  12.123  1.00  0.00     0.006 A 
ATOM     10  C   UNL     1      32.378  38.259  13.939  1.00  0.00     0.006 A 
ATOM     11  C   UNL     1      32.643  37.966  11.272  1.00  0.00     0.000 A 
ATOM     12  C   UNL     1      31.968  39.268  13.105  1.00  0.00     0.000 A 
ATOM     13  C   UNL     1      32.098  39.130  11.751  1.00  0.00     0.000 A 
ENDBRANCH   1   8
BRANCH   1  14
ATOM     14  C   UNL     1      34.700  35.504  14.239  1.00  0.00    -0.019 A 
ATOM     15  C   UNL     1      35.770  35.763  15.067  1.00  0.00     0.006 A 
ATOM     16  C   UNL     1      34.961  34.678  13.162  1.00  0.00     0.006 A 
ATOM     17  C   UNL     1      36.999  35.230  14.821  1.00  0.00     0.000 A 
ATOM     18  C   UNL     1      36.194  34.126  12.892  1.00  0.00     0.000 A 
ATOM     19  C   UNL     1      37.219  34.414  13.740  1.00  0.00     0.000 A 
ENDBRANCH   1  14
TORSDOF 3
BEGIN_RES LYS A 135
REMARK  4 active torsions:
REMARK  status: ('A' for Active; 'I' for Inactive)
REMARK    1  A    between atoms: CA   and  CB  
REMARK    2  A    between atoms: CB   and  CG  
REMARK    3  A    between atoms: CG   and  CD  
REMARK    4  A    between atoms: CD   and  CE  
ROOT
ATOM      1  CA  LYS A 135      33.193  34.663   9.290  1.00 25.02     0.186 C 
ENDROOT
BRANCH   1   2
ATOM      2  CB  LYS A 135      32.060  35.360  10.034  1.00 26.63     0.034 C 
BRANCH   2   3
ATOM      3  CG  LYS A 135      30.793  35.480   9.227  1.00 29.45     0.005 C 
BRANCH   3   4
ATOM      4  CD  LYS A 135      30.180  34.110   8.984  1.00 32.00     0.041 C 
BRANCH   4   5
ATOM      5  CE  LYS A 135      28.669  34.211   8.893  1.00 34.25     0.338 C 
ATOM      6  NZ  LYS A 135      28.174  35.452   9.550  1.00 35.99     0.618 N 
ENDBRANCH   4   5
ENDBRANCH   3   4
ENDBRANCH   2   3
ENDBRANCH   1   2
END_RES LYS A 135
BEGIN_RES TYR A 136
REMARK  2 active torsions:
REMARK  status: ('A' for Active; 'I' for Inactive)
REMARK    5  A    between atoms: CA   and  CB  
REMARK    6  A    between atoms: CB   and  CG  
ROOT
ATOM      7  CA  TYR A 136      36.583  36.399   8.994  1.00 26.14     0.191 C 
ENDROOT
BRANCH   7   8
ATOM      8  CB  TYR A 136      37.367  36.835  10.240  1.00 28.16     0.060 C 
BRANCH   8   9
ATOM      9  CG  TYR A 136      36.724  38.000  10.952  1.00 31.88    -0.020 A 
ATOM     10  CD2 TYR A 136      36.640  38.039  12.345  1.00 32.67    -0.002 A 
ATOM     11  CE2 TYR A 136      36.039  39.125  12.997  1.00 33.89     0.027 A 
ATOM     12  CZ  TYR A 136      35.518  40.181  12.247  1.00 34.34     0.131 A 
ATOM     13  OH  TYR A 136      34.925  41.270  12.871  1.00 35.14    -0.190 OA
ATOM     14  CE1 TYR A 136      35.592  40.159  10.861  1.00 35.01     0.027 A 
ATOM     15  CD1 TYR A 136      36.186  39.069  10.224  1.00 33.57    -0.002 A 
ENDBRANCH   8   9
ENDBRANCH   7   8
END_RES TYR A 136
BEGIN_RES ASN A 133
REMARK  2 active torsions:
REMARK  status: ('A' for Active; 'I' for Inactive)
REMARK    7  A    between atoms: CA   and  CB  
REMARK    8  A    between atoms: CB   and  CG  
ROOT
ATOM     16  CA  ASN A 133      31.225  30.257  11.749  1.00 18.15     0.196 C 
ENDROOT
BRANCH  16  17
ATOM     17  CB  ASN A 133      30.092  31.240  11.460  1.00 18.27     0.126 C 
BRANCH  17  18
ATOM     18  CG  ASN A 133      28.756  30.578  11.317  1.00 18.94     0.276 C 
ATOM     19  OD1 ASN A 133      28.600  29.612  10.569  1.00 18.09    -0.269 OA
ATOM     20  ND2 ASN A 133      27.767  31.099  12.043  1.00 18.93    -0.107 N 
ENDBRANCH  17  18
ENDBRANCH  16  17
END_RES ASN A 133
