REMARK VINA RESULT:    -2.962      5.456      8.000
REMARK INTER + INTRA:          -6.823
REMARK INTER:                  -3.441
REMARK INTRA:                  -3.381
REMARK UNBOUND:                -3.428
REMARK SMILES Cc1cn([C@@H](C)C(=O)O)nn1
REMARK SMILES IDX 5 1 6 2 4 3 1 4 2 5 3 6 11 7 10 8 7 9 8 10 9 11
REMARK H PARENT 9 12
REMARK Flexibility Score: inf
ROOT
ATOM      1  C   UNL     1      29.488  32.584  16.303  1.00  0.00     0.215 C 
ATOM      2  C   UNL     1      30.927  32.492  16.741  1.00  0.00     0.046 C 
ENDROOT
BRANCH   1   3
ATOM      3  N   UNL     1      28.779  31.323  16.542  1.00  0.00    -0.238 N 
ATOM      4  C   UNL     1      26.904  28.851  18.433  1.00  0.00     0.070 C 
ATOM      5  C   UNL     1      27.651  29.661  17.424  1.00  0.00     0.080 A 
ATOM      6  C   UNL     1      28.191  30.912  17.667  1.00  0.00     0.135 A 
ATOM      7  N   UNL     1      27.931  29.361  16.160  1.00  0.00    -0.136 NA
ATOM      8  N   UNL     1      28.610  30.373  15.642  1.00  0.00    -0.066 NA
ENDBRANCH   1   3
BRANCH   1   9
ATOM      9  C   UNL     1      29.427  32.910  14.866  1.00  0.00     0.328 C 
ATOM     10  O   UNL     1      28.523  33.653  14.436  1.00  0.00    -0.250 OA
BRANCH   9  11
ATOM     11  O   UNL     1      30.344  32.425  13.943  1.00  0.00    -0.480 OA
ATOM     12  H   UNL     1      30.034  31.985  13.063  1.00  0.00     0.296 HD
ENDBRANCH   9  11
ENDBRANCH   1   9
TORSDOF 3
BEGIN_RES LYS A 135
REMARK  4 active torsions:
REMARK  status: ('A' for Active; 'I' for Inactive)
REMARK    1  A    between atoms: CA   and  CB  
REMARK    2  A    between atoms: CB   and  CG  
REMARK    3  A    between atoms: CG   and  CD  
REMARK    4  A    between atoms: CD   and  CE  
ROOT
ATOM      1  CA  LYS A 135      33.193  34.663   9.290  1.00 25.02     0.186 C 
ENDROOT
BRANCH   1   2
ATOM      2  CB  LYS A 135      32.060  35.360  10.034  1.00 26.63     0.034 C 
BRANCH   2   3
ATOM      3  CG  LYS A 135      30.804  35.510   9.215  1.00 29.45     0.005 C 
BRANCH   3   4
ATOM      4  CD  LYS A 135      30.128  34.162   9.017  1.00 32.00     0.041 C 
BRANCH   4   5
ATOM      5  CE  LYS A 135      28.671  34.346   8.641  1.00 34.25     0.338 C 
ATOM      6  NZ  LYS A 135      27.774  33.678   9.623  1.00 35.99     0.618 N 
ENDBRANCH   4   5
ENDBRANCH   3   4
ENDBRANCH   2   3
ENDBRANCH   1   2
END_RES LYS A 135
BEGIN_RES TYR A 136
REMARK  2 active torsions:
REMARK  status: ('A' for Active; 'I' for Inactive)
REMARK    5  A    between atoms: CA   and  CB  
REMARK    6  A    between atoms: CB   and  CG  
ROOT
ATOM      7  CA  TYR A 136      36.583  36.399   8.994  1.00 26.14     0.191 C 
ENDROOT
BRANCH   7   8
ATOM      8  CB  TYR A 136      37.367  36.835  10.240  1.00 28.16     0.060 C 
BRANCH   8   9
ATOM      9  CG  TYR A 136      37.207  38.305  10.541  1.00 31.88    -0.020 A 
ATOM     10  CD2 TYR A 136      36.345  38.748  11.547  1.00 32.67    -0.002 A 
ATOM     11  CE2 TYR A 136      36.203  40.116  11.817  1.00 33.89     0.027 A 
ATOM     12  CZ  TYR A 136      36.930  41.049  11.074  1.00 34.34     0.131 A 
ATOM     13  OH  TYR A 136      36.810  42.408  11.329  1.00 35.14    -0.190 OA
ATOM     14  CE1 TYR A 136      37.790  40.627  10.071  1.00 35.01     0.027 A 
ATOM     15  CD1 TYR A 136      37.919  39.262   9.806  1.00 33.57    -0.002 A 
ENDBRANCH   8   9
ENDBRANCH   7   8
END_RES TYR A 136
BEGIN_RES ASN A 133
REMARK  2 active torsions:
REMARK  status: ('A' for Active; 'I' for Inactive)
REMARK    7  A    between atoms: CA   and  CB  
REMARK    8  A    between atoms: CB   and  CG  
ROOT
ATOM     16  CA  ASN A 133      31.225  30.257  11.749  1.00 18.15     0.196 C 
ENDROOT
BRANCH  16  17
ATOM     17  CB  ASN A 133      30.092  31.240  11.460  1.00 18.27     0.126 C 
BRANCH  17  18
ATOM     18  CG  ASN A 133      28.754  30.580  11.330  1.00 18.94     0.276 C 
ATOM     19  OD1 ASN A 133      28.585  29.626  10.568  1.00 18.09    -0.269 OA
ATOM     20  ND2 ASN A 133      27.778  31.087  12.082  1.00 18.93    -0.107 N 
ENDBRANCH  17  18
ENDBRANCH  16  17
END_RES ASN A 133
