REMARK VINA RESULT:    -5.973      6.135      9.491
REMARK INTER + INTRA:          -8.824
REMARK INTER:                  -5.127
REMARK INTRA:                  -3.697
REMARK UNBOUND:                -1.804
REMARK SMILES Cc1cn(C(C)(C)C(=O)c2c[nH]c3ccccc23)nn1
REMARK SMILES IDX 5 1 6 2 7 3 4 4 1 5 2 6 3 7 20 8 19 9 8 10 9 11 10 12 11 13
REMARK SMILES IDX 18 14 12 15 13 16 17 17 14 19 16 20 15 21
REMARK H PARENT 12 18
REMARK Flexibility Score: inf
ROOT
ATOM      1  C   UNL     1      26.969  30.277  18.371  1.00  0.00     0.122 C 
ATOM      2  C   UNL     1      27.088  29.028  17.486  1.00  0.00     0.046 C 
ATOM      3  C   UNL     1      25.704  31.023  18.073  1.00  0.00     0.046 C 
ENDROOT
BRANCH   1   4
ATOM      4  N   UNL     1      28.087  31.126  17.926  1.00  0.00    -0.239 N 
ATOM      5  C   UNL     1      30.998  32.056  15.890  1.00  0.00     0.070 C 
ATOM      6  C   UNL     1      29.856  31.937  16.857  1.00  0.00     0.080 A 
ATOM      7  C   UNL     1      28.971  30.878  16.943  1.00  0.00     0.135 A 
ATOM      8  N   UNL     1      29.470  32.801  17.804  1.00  0.00    -0.136 NA
ATOM      9  N   UNL     1      28.422  32.299  18.423  1.00  0.00    -0.066 NA
ENDBRANCH   1   4
BRANCH   1  10
ATOM     10  C   UNL     1      27.135  29.857  19.758  1.00  0.00     0.192 C 
ATOM     11  O   UNL     1      26.486  30.357  20.732  1.00  0.00    -0.291 OA
BRANCH  10  12
ATOM     12  C   UNL     1      28.094  28.811  20.085  1.00  0.00     0.045 A 
ATOM     13  C   UNL     1      27.814  27.445  20.217  1.00  0.00     0.095 A 
ATOM     14  C   UNL     1      29.440  28.932  20.353  1.00  0.00     0.010 A 
ATOM     15  N   UNL     1      28.932  26.788  20.547  1.00  0.00    -0.360 N 
ATOM     16  C   UNL     1      29.952  27.676  20.639  1.00  0.00     0.046 A 
ATOM     17  C   UNL     1      30.308  29.981  20.381  1.00  0.00     0.011 A 
ATOM     18  H   UNL     1      29.046  25.749  20.718  1.00  0.00     0.166 HD
ATOM     19  C   UNL     1      31.279  27.473  20.944  1.00  0.00     0.027 A 
ATOM     20  C   UNL     1      31.655  29.806  20.686  1.00  0.00     0.001 A 
ATOM     21  C   UNL     1      32.118  28.548  20.963  1.00  0.00     0.002 A 
ENDBRANCH  10  12
ENDBRANCH   1  10
TORSDOF 3
BEGIN_RES LYS A 135
REMARK  4 active torsions:
REMARK  status: ('A' for Active; 'I' for Inactive)
REMARK    1  A    between atoms: CA   and  CB  
REMARK    2  A    between atoms: CB   and  CG  
REMARK    3  A    between atoms: CG   and  CD  
REMARK    4  A    between atoms: CD   and  CE  
ROOT
ATOM      1  CA  LYS A 135      33.193  34.663   9.290  1.00 25.02     0.186 C 
ENDROOT
BRANCH   1   2
ATOM      2  CB  LYS A 135      32.060  35.360  10.034  1.00 26.63     0.034 C 
BRANCH   2   3
ATOM      3  CG  LYS A 135      30.802  35.505   9.217  1.00 29.45     0.005 C 
BRANCH   3   4
ATOM      4  CD  LYS A 135      30.127  34.155   9.027  1.00 32.00     0.041 C 
BRANCH   4   5
ATOM      5  CE  LYS A 135      28.673  34.338   8.638  1.00 34.25     0.338 C 
ATOM      6  NZ  LYS A 135      27.768  33.686   9.626  1.00 35.99     0.618 N 
ENDBRANCH   4   5
ENDBRANCH   3   4
ENDBRANCH   2   3
ENDBRANCH   1   2
END_RES LYS A 135
BEGIN_RES TYR A 136
REMARK  2 active torsions:
REMARK  status: ('A' for Active; 'I' for Inactive)
REMARK    5  A    between atoms: CA   and  CB  
REMARK    6  A    between atoms: CB   and  CG  
ROOT
ATOM      7  CA  TYR A 136      36.583  36.399   8.994  1.00 26.14     0.191 C 
ENDROOT
BRANCH   7   8
ATOM      8  CB  TYR A 136      37.367  36.835  10.240  1.00 28.16     0.060 C 
BRANCH   8   9
ATOM      9  CG  TYR A 136      37.198  38.302  10.548  1.00 31.88    -0.020 A 
ATOM     10  CD2 TYR A 136      36.667  39.183   9.603  1.00 32.67    -0.002 A 
ATOM     11  CE2 TYR A 136      36.515  40.545   9.898  1.00 33.89     0.027 A 
ATOM     12  CZ  TYR A 136      36.900  41.030  11.150  1.00 34.34     0.131 A 
ATOM     13  OH  TYR A 136      36.753  42.373  11.467  1.00 35.14    -0.190 OA
ATOM     14  CE1 TYR A 136      37.431  40.170  12.101  1.00 35.01     0.027 A 
ATOM     15  CD1 TYR A 136      37.582  38.817  11.793  1.00 33.57    -0.002 A 
ENDBRANCH   8   9
ENDBRANCH   7   8
END_RES TYR A 136
BEGIN_RES ASN A 133
REMARK  2 active torsions:
REMARK  status: ('A' for Active; 'I' for Inactive)
REMARK    7  A    between atoms: CA   and  CB  
REMARK    8  A    between atoms: CB   and  CG  
ROOT
ATOM     16  CA  ASN A 133      31.225  30.257  11.749  1.00 18.15     0.196 C 
ENDROOT
BRANCH  16  17
ATOM     17  CB  ASN A 133      30.092  31.240  11.460  1.00 18.27     0.126 C 
BRANCH  17  18
ATOM     18  CG  ASN A 133      28.751  30.583  11.356  1.00 18.94     0.276 C 
ATOM     19  OD1 ASN A 133      28.573  29.607  10.624  1.00 18.09    -0.269 OA
ATOM     20  ND2 ASN A 133      27.780  31.119  12.095  1.00 18.93    -0.107 N 
ENDBRANCH  17  18
ENDBRANCH  16  17
END_RES ASN A 133
