REMARK VINA RESULT:    -4.043      8.763     12.242
REMARK INTER + INTRA:          -8.691
REMARK INTER:                  -5.161
REMARK INTRA:                  -3.530
REMARK UNBOUND:                -3.466
REMARK SMILES Cc1cn([C@@H](CC(=O)O)C(=O)O)nn1
REMARK SMILES IDX 6 1 5 2 4 3 1 4 2 5 3 6 14 7 13 8 10 9 11 10 12 11 7 13 8 14
REMARK SMILES IDX 9 15
REMARK H PARENT 12 12 9 16
REMARK Flexibility Score: inf
ROOT
ATOM      1  C   UNL     1      21.109  35.090  -0.756  1.00  0.00     0.161 C 
ENDROOT
BRANCH   1   2
ATOM      2  C   UNL     1      22.337  34.225  -0.663  1.00  0.00     0.229 C 
BRANCH   2   3
ATOM      3  N   UNL     1      22.327  33.211  -1.708  1.00  0.00    -0.237 N 
ATOM      4  C   UNL     1      22.593  31.934  -5.077  1.00  0.00     0.070 C 
ATOM      5  C   UNL     1      22.430  32.172  -3.625  1.00  0.00     0.080 A 
ATOM      6  C   UNL     1      22.543  33.398  -3.027  1.00  0.00     0.135 A 
ATOM      7  N   UNL     1      22.152  31.263  -2.694  1.00  0.00    -0.136 NA
ATOM      8  N   UNL     1      22.099  31.929  -1.550  1.00  0.00    -0.066 NA
ENDBRANCH   2   3
BRANCH   2   9
ATOM      9  C   UNL     1      22.533  33.670   0.678  1.00  0.00     0.329 C 
ATOM     10  O   UNL     1      23.352  34.128   1.489  1.00  0.00    -0.250 OA
BRANCH   9  11
ATOM     11  O   UNL     1      21.787  32.580   1.105  1.00  0.00    -0.480 OA
ATOM     12  H   UNL     1      20.989  32.275   0.563  1.00  0.00     0.296 HD
ENDBRANCH   9  11
ENDBRANCH   2   9
ENDBRANCH   1   2
BRANCH   1  13
ATOM     13  C   UNL     1      21.521  36.479  -0.476  1.00  0.00     0.306 C 
ATOM     14  O   UNL     1      21.639  37.324  -1.397  1.00  0.00    -0.252 OA
BRANCH  13  15
ATOM     15  O   UNL     1      21.779  36.848   0.842  1.00  0.00    -0.481 OA
ATOM     16  H   UNL     1      21.718  37.838   1.121  1.00  0.00     0.296 HD
ENDBRANCH  13  15
ENDBRANCH   1  13
TORSDOF 6
BEGIN_RES LYS A 135
REMARK  4 active torsions:
REMARK  status: ('A' for Active; 'I' for Inactive)
REMARK    1  A    between atoms: CA   and  CB  
REMARK    2  A    between atoms: CB   and  CG  
REMARK    3  A    between atoms: CG   and  CD  
REMARK    4  A    between atoms: CD   and  CE  
ROOT
ATOM      1  CA  LYS A 135      33.193  34.663   9.290  1.00 25.02     0.186 C 
ENDROOT
BRANCH   1   2
ATOM      2  CB  LYS A 135      32.060  35.360  10.034  1.00 26.63     0.034 C 
BRANCH   2   3
ATOM      3  CG  LYS A 135      30.695  34.819   9.696  1.00 29.45     0.005 C 
BRANCH   3   4
ATOM      4  CD  LYS A 135      30.591  34.515   8.209  1.00 32.00     0.041 C 
BRANCH   4   5
ATOM      5  CE  LYS A 135      29.225  34.907   7.679  1.00 34.25     0.338 C 
ATOM      6  NZ  LYS A 135      28.143  34.443   8.590  1.00 35.99     0.618 N 
ENDBRANCH   4   5
ENDBRANCH   3   4
ENDBRANCH   2   3
ENDBRANCH   1   2
END_RES LYS A 135
BEGIN_RES TYR A 136
REMARK  2 active torsions:
REMARK  status: ('A' for Active; 'I' for Inactive)
REMARK    5  A    between atoms: CA   and  CB  
REMARK    6  A    between atoms: CB   and  CG  
ROOT
ATOM      7  CA  TYR A 136      36.583  36.399   8.994  1.00 26.14     0.191 C 
ENDROOT
BRANCH   7   8
ATOM      8  CB  TYR A 136      37.367  36.835  10.240  1.00 28.16     0.060 C 
BRANCH   8   9
ATOM      9  CG  TYR A 136      37.177  38.296  10.563  1.00 31.88    -0.020 A 
ATOM     10  CD2 TYR A 136      36.455  39.137   9.713  1.00 32.67    -0.002 A 
ATOM     11  CE2 TYR A 136      36.285  40.494  10.022  1.00 33.89     0.027 A 
ATOM     12  CZ  TYR A 136      36.843  41.014  11.192  1.00 34.34     0.131 A 
ATOM     13  OH  TYR A 136      36.682  42.353  11.521  1.00 35.14    -0.190 OA
ATOM     14  CE1 TYR A 136      37.564  40.193  12.048  1.00 35.01     0.027 A 
ATOM     15  CD1 TYR A 136      37.732  38.846  11.726  1.00 33.57    -0.002 A 
ENDBRANCH   8   9
ENDBRANCH   7   8
END_RES TYR A 136
BEGIN_RES ASN A 133
REMARK  2 active torsions:
REMARK  status: ('A' for Active; 'I' for Inactive)
REMARK    7  A    between atoms: CA   and  CB  
REMARK    8  A    between atoms: CB   and  CG  
ROOT
ATOM     16  CA  ASN A 133      31.225  30.257  11.749  1.00 18.15     0.196 C 
ENDROOT
BRANCH  16  17
ATOM     17  CB  ASN A 133      30.092  31.240  11.460  1.00 18.27     0.126 C 
BRANCH  17  18
ATOM     18  CG  ASN A 133      28.753  30.580  11.337  1.00 18.94     0.276 C 
ATOM     19  OD1 ASN A 133      28.575  29.638  10.563  1.00 18.09    -0.269 OA
ATOM     20  ND2 ASN A 133      27.786  31.077  12.108  1.00 18.93    -0.107 N 
ENDBRANCH  17  18
ENDBRANCH  16  17
END_RES ASN A 133
