REMARK VINA RESULT:    -3.706      1.385      4.508
REMARK INTER + INTRA:          -8.301
REMARK INTER:                  -4.734
REMARK INTRA:                  -3.567
REMARK UNBOUND:                -3.295
REMARK SMILES CC[N+](C)(CC)CCCn1cc(C)nn1
REMARK SMILES IDX 8 1 9 2 10 3 13 4 12 5 11 6 14 7 15 8 7 9 3 10 4 11 2 12
REMARK SMILES IDX 1 13 5 14 6 15
REMARK H PARENT
REMARK Flexibility Score: inf
ROOT
ATOM      1  C   UNL     1      35.685  35.899  13.689  1.00  0.00     0.085 C 
ENDROOT
BRANCH   1   2
ATOM      2  C   UNL     1      34.462  36.217  12.855  1.00  0.00     0.152 C 
BRANCH   2   3
ATOM      3  N   UNL     1      33.307  35.564  13.435  1.00  0.00    -0.252 N 
ATOM      4  C   UNL     1      31.737  33.393  15.915  1.00  0.00     0.070 C 
ATOM      5  C   UNL     1      32.067  34.309  14.790  1.00  0.00     0.080 A 
ATOM      6  C   UNL     1      33.353  34.743  14.524  1.00  0.00     0.134 A 
ATOM      7  N   UNL     1      31.287  34.868  13.868  1.00  0.00    -0.136 NA
ATOM      8  N   UNL     1      32.046  35.602  13.084  1.00  0.00    -0.067 NA
ENDBRANCH   2   3
ENDBRANCH   1   2
BRANCH   1   9
ATOM      9  C   UNL     1      36.774  35.409  12.787  1.00  0.00     0.265 C 
BRANCH   9  10
ATOM     10  N   UNL     1      37.937  34.953  13.526  1.00  0.00    -0.326 N 
ATOM     11  C   UNL     1      39.092  35.773  13.291  1.00  0.00     0.334 C 
BRANCH  10  12
ATOM     12  C   UNL     1      37.589  35.142  14.946  1.00  0.00     0.260 C 
ATOM     13  C   UNL     1      38.343  34.219  15.841  1.00  0.00     0.071 C 
ENDBRANCH  10  12
BRANCH  10  14
ATOM     14  C   UNL     1      38.139  33.563  13.339  1.00  0.00     0.260 C 
ATOM     15  C   UNL     1      37.425  32.931  12.212  1.00  0.00     0.071 C 
ENDBRANCH  10  14
ENDBRANCH   9  10
ENDBRANCH   1   9
TORSDOF 6
BEGIN_RES LYS A 135
REMARK  4 active torsions:
REMARK  status: ('A' for Active; 'I' for Inactive)
REMARK    1  A    between atoms: CA   and  CB  
REMARK    2  A    between atoms: CB   and  CG  
REMARK    3  A    between atoms: CG   and  CD  
REMARK    4  A    between atoms: CD   and  CE  
ROOT
ATOM      1  CA  LYS A 135      33.193  34.663   9.290  1.00 25.02     0.186 C 
ENDROOT
BRANCH   1   2
ATOM      2  CB  LYS A 135      32.060  35.360  10.034  1.00 26.63     0.034 C 
BRANCH   2   3
ATOM      3  CG  LYS A 135      30.725  34.680   9.872  1.00 29.45     0.005 C 
BRANCH   3   4
ATOM      4  CD  LYS A 135      30.361  34.555   8.401  1.00 32.00     0.041 C 
BRANCH   4   5
ATOM      5  CE  LYS A 135      28.855  34.586   8.220  1.00 34.25     0.338 C 
ATOM      6  NZ  LYS A 135      28.165  33.909   9.353  1.00 35.99     0.618 N 
ENDBRANCH   4   5
ENDBRANCH   3   4
ENDBRANCH   2   3
ENDBRANCH   1   2
END_RES LYS A 135
BEGIN_RES TYR A 136
REMARK  2 active torsions:
REMARK  status: ('A' for Active; 'I' for Inactive)
REMARK    5  A    between atoms: CA   and  CB  
REMARK    6  A    between atoms: CB   and  CG  
ROOT
ATOM      7  CA  TYR A 136      36.583  36.399   8.994  1.00 26.14     0.191 C 
ENDROOT
BRANCH   7   8
ATOM      8  CB  TYR A 136      37.367  36.835  10.240  1.00 28.16     0.060 C 
BRANCH   8   9
ATOM      9  CG  TYR A 136      37.095  38.269  10.624  1.00 31.88    -0.020 A 
ATOM     10  CD2 TYR A 136      36.159  39.038   9.930  1.00 32.67    -0.002 A 
ATOM     11  CE2 TYR A 136      35.915  40.370  10.294  1.00 33.89     0.027 A 
ATOM     12  CZ  TYR A 136      36.614  40.936  11.363  1.00 34.34     0.131 A 
ATOM     13  OH  TYR A 136      36.384  42.250  11.745  1.00 35.14    -0.190 OA
ATOM     14  CE1 TYR A 136      37.549  40.186  12.062  1.00 35.01     0.027 A 
ATOM     15  CD1 TYR A 136      37.788  38.863  11.687  1.00 33.57    -0.002 A 
ENDBRANCH   8   9
ENDBRANCH   7   8
END_RES TYR A 136
BEGIN_RES ASN A 133
REMARK  2 active torsions:
REMARK  status: ('A' for Active; 'I' for Inactive)
REMARK    7  A    between atoms: CA   and  CB  
REMARK    8  A    between atoms: CB   and  CG  
ROOT
ATOM     16  CA  ASN A 133      31.225  30.257  11.749  1.00 18.15     0.196 C 
ENDROOT
BRANCH  16  17
ATOM     17  CB  ASN A 133      30.092  31.240  11.460  1.00 18.27     0.126 C 
BRANCH  17  18
ATOM     18  CG  ASN A 133      28.751  30.583  11.356  1.00 18.94     0.276 C 
ATOM     19  OD1 ASN A 133      28.578  29.596  10.638  1.00 18.09    -0.269 OA
ATOM     20  ND2 ASN A 133      27.775  31.131  12.079  1.00 18.93    -0.107 N 
ENDBRANCH  17  18
ENDBRANCH  16  17
END_RES ASN A 133
