REMARK VINA RESULT:    -4.167      4.231      6.758
REMARK INTER + INTRA:          -6.591
REMARK INTER:                  -4.436
REMARK INTRA:                  -2.155
REMARK UNBOUND:                -2.181
REMARK SMILES Cc1cn(-c2ccccc2)nn1
REMARK SMILES IDX 5 1 6 2 7 3 8 4 9 5 10 6 4 7 1 8 2 9 3 10 12 11 11 12
REMARK H PARENT
REMARK Flexibility Score: inf
ROOT
ATOM      1  C   UNL     1      26.333  35.590   8.836  1.00  0.00     0.066 A 
ATOM      2  C   UNL     1      26.053  36.775   8.183  1.00  0.00     0.028 A 
ATOM      3  C   UNL     1      26.672  37.125   7.007  1.00  0.00     0.002 A 
ATOM      4  C   UNL     1      27.610  36.298   6.423  1.00  0.00     0.000 A 
ATOM      5  C   UNL     1      27.890  35.113   7.074  1.00  0.00     0.002 A 
ATOM      6  C   UNL     1      27.269  34.762   8.256  1.00  0.00     0.028 A 
ENDROOT
BRANCH   1   7
ATOM      7  N   UNL     1      25.696  35.217  10.059  1.00  0.00    -0.220 N 
ATOM      8  C   UNL     1      25.589  33.717  13.408  1.00  0.00     0.070 C 
ATOM      9  C   UNL     1      25.332  34.388  12.103  1.00  0.00     0.080 A 
ATOM     10  C   UNL     1      26.270  34.576  11.093  1.00  0.00     0.140 A 
ATOM     11  N   UNL     1      24.206  34.934  11.625  1.00  0.00    -0.135 NA
ATOM     12  N   UNL     1      24.437  35.419  10.417  1.00  0.00    -0.062 NA
ENDBRANCH   1   7
TORSDOF 1
BEGIN_RES LYS A 135
REMARK  4 active torsions:
REMARK  status: ('A' for Active; 'I' for Inactive)
REMARK    1  A    between atoms: CA   and  CB  
REMARK    2  A    between atoms: CB   and  CG  
REMARK    3  A    between atoms: CG   and  CD  
REMARK    4  A    between atoms: CD   and  CE  
ROOT
ATOM      1  CA  LYS A 135      33.193  34.663   9.290  1.00 25.02     0.186 C 
ENDROOT
BRANCH   1   2
ATOM      2  CB  LYS A 135      32.060  35.360  10.034  1.00 26.63     0.034 C 
BRANCH   2   3
ATOM      3  CG  LYS A 135      30.816  35.543   9.203  1.00 29.45     0.005 C 
BRANCH   3   4
ATOM      4  CD  LYS A 135      30.055  36.784   9.642  1.00 32.00     0.041 C 
BRANCH   4   5
ATOM      5  CE  LYS A 135      30.101  37.846   8.560  1.00 34.25     0.338 C 
ATOM      6  NZ  LYS A 135      31.361  38.637   8.636  1.00 35.99     0.618 N 
ENDBRANCH   4   5
ENDBRANCH   3   4
ENDBRANCH   2   3
ENDBRANCH   1   2
END_RES LYS A 135
BEGIN_RES TYR A 136
REMARK  2 active torsions:
REMARK  status: ('A' for Active; 'I' for Inactive)
REMARK    5  A    between atoms: CA   and  CB  
REMARK    6  A    between atoms: CB   and  CG  
ROOT
ATOM      7  CA  TYR A 136      36.583  36.399   8.994  1.00 26.14     0.191 C 
ENDROOT
BRANCH   7   8
ATOM      8  CB  TYR A 136      37.367  36.835  10.240  1.00 28.16     0.060 C 
BRANCH   8   9
ATOM      9  CG  TYR A 136      37.206  38.305  10.542  1.00 31.88    -0.020 A 
ATOM     10  CD2 TYR A 136      36.332  38.747  11.537  1.00 32.67    -0.002 A 
ATOM     11  CE2 TYR A 136      36.188  40.115  11.808  1.00 33.89     0.027 A 
ATOM     12  CZ  TYR A 136      36.927  41.048  11.077  1.00 34.34     0.131 A 
ATOM     13  OH  TYR A 136      36.806  42.407  11.333  1.00 35.14    -0.190 OA
ATOM     14  CE1 TYR A 136      37.799  40.626  10.084  1.00 35.01     0.027 A 
ATOM     15  CD1 TYR A 136      37.929  39.262   9.819  1.00 33.57    -0.002 A 
ENDBRANCH   8   9
ENDBRANCH   7   8
END_RES TYR A 136
BEGIN_RES ASN A 133
REMARK  2 active torsions:
REMARK  status: ('A' for Active; 'I' for Inactive)
REMARK    7  A    between atoms: CA   and  CB  
REMARK    8  A    between atoms: CB   and  CG  
ROOT
ATOM     16  CA  ASN A 133      31.225  30.257  11.749  1.00 18.15     0.196 C 
ENDROOT
BRANCH  16  17
ATOM     17  CB  ASN A 133      30.092  31.240  11.460  1.00 18.27     0.126 C 
BRANCH  17  18
ATOM     18  CG  ASN A 133      28.752  30.582  11.346  1.00 18.94     0.276 C 
ATOM     19  OD1 ASN A 133      28.584  29.597  10.624  1.00 18.09    -0.269 OA
ATOM     20  ND2 ASN A 133      27.772  31.126  12.066  1.00 18.93    -0.107 N 
ENDBRANCH  17  18
ENDBRANCH  16  17
END_RES ASN A 133
