REMARK VINA RESULT:    -4.814      5.065     10.443
REMARK INTER + INTRA:          -8.147
REMARK INTER:                  -5.038
REMARK INTRA:                  -3.109
REMARK UNBOUND:                -3.051
REMARK SMILES Cc1cn(-c2c3ccccc3nc3ccccc23)nn1
REMARK SMILES IDX 5 1 6 2 7 3 8 4 9 5 10 6 11 7 12 8 13 9 14 10 15 11 16 12
REMARK SMILES IDX 17 13 18 14 4 15 1 16 2 17 3 18 20 19 19 20
REMARK H PARENT
REMARK Flexibility Score: inf
ROOT
ATOM      1  C   UNL     1      25.317  29.629  16.313  1.00  0.00     0.085 A 
ATOM      2  C   UNL     1      24.930  28.716  17.279  1.00  0.00     0.027 A 
ATOM      3  C   UNL     1      25.679  28.544  18.423  1.00  0.00     0.012 A 
ATOM      4  C   UNL     1      25.270  27.628  19.369  1.00  0.00     0.001 A 
ATOM      5  C   UNL     1      24.116  26.916  19.126  1.00  0.00     0.002 A 
ATOM      6  C   UNL     1      23.375  27.092  17.989  1.00  0.00     0.029 A 
ATOM      7  C   UNL     1      23.771  28.014  17.019  1.00  0.00     0.073 A 
ATOM      8  N   UNL     1      23.031  28.169  15.912  1.00  0.00    -0.248 NA
ATOM      9  C   UNL     1      23.408  29.068  14.954  1.00  0.00     0.073 A 
ATOM     10  C   UNL     1      22.650  29.235  13.811  1.00  0.00     0.029 A 
ATOM     11  C   UNL     1      23.083  30.157  12.884  1.00  0.00     0.002 A 
ATOM     12  C   UNL     1      24.234  30.897  13.078  1.00  0.00     0.001 A 
ATOM     13  C   UNL     1      24.965  30.719  14.209  1.00  0.00     0.012 A 
ATOM     14  C   UNL     1      24.553  29.804  15.150  1.00  0.00     0.027 A 
ENDROOT
BRANCH   1  15
ATOM     15  N   UNL     1      26.494  30.403  16.483  1.00  0.00    -0.219 N 
ATOM     16  C   UNL     1      30.087  31.122  16.290  1.00  0.00     0.070 C 
ATOM     17  C   UNL     1      28.593  31.083  16.484  1.00  0.00     0.080 A 
ATOM     18  C   UNL     1      27.743  30.052  16.156  1.00  0.00     0.140 A 
ATOM     19  N   UNL     1      27.835  32.053  17.012  1.00  0.00    -0.135 NA
ATOM     20  N   UNL     1      26.597  31.608  16.992  1.00  0.00    -0.062 NA
ENDBRANCH   1  15
TORSDOF 1
BEGIN_RES LYS A 135
REMARK  4 active torsions:
REMARK  status: ('A' for Active; 'I' for Inactive)
REMARK    1  A    between atoms: CA   and  CB  
REMARK    2  A    between atoms: CB   and  CG  
REMARK    3  A    between atoms: CG   and  CD  
REMARK    4  A    between atoms: CD   and  CE  
ROOT
ATOM      1  CA  LYS A 135      33.193  34.663   9.290  1.00 25.02     0.186 C 
ENDROOT
BRANCH   1   2
ATOM      2  CB  LYS A 135      32.060  35.360  10.034  1.00 26.63     0.034 C 
BRANCH   2   3
ATOM      3  CG  LYS A 135      30.809  35.523   9.210  1.00 29.45     0.005 C 
BRANCH   3   4
ATOM      4  CD  LYS A 135      30.140  34.177   8.978  1.00 32.00     0.041 C 
BRANCH   4   5
ATOM      5  CE  LYS A 135      28.676  34.364   8.628  1.00 34.25     0.338 C 
ATOM      6  NZ  LYS A 135      27.796  33.685   9.619  1.00 35.99     0.618 N 
ENDBRANCH   4   5
ENDBRANCH   3   4
ENDBRANCH   2   3
ENDBRANCH   1   2
END_RES LYS A 135
BEGIN_RES TYR A 136
REMARK  2 active torsions:
REMARK  status: ('A' for Active; 'I' for Inactive)
REMARK    5  A    between atoms: CA   and  CB  
REMARK    6  A    between atoms: CB   and  CG  
ROOT
ATOM      7  CA  TYR A 136      36.583  36.399   8.994  1.00 26.14     0.191 C 
ENDROOT
BRANCH   7   8
ATOM      8  CB  TYR A 136      37.367  36.835  10.240  1.00 28.16     0.060 C 
BRANCH   8   9
ATOM      9  CG  TYR A 136      37.200  38.303  10.546  1.00 31.88    -0.020 A 
ATOM     10  CD2 TYR A 136      37.691  38.855  11.732  1.00 32.67    -0.002 A 
ATOM     11  CE2 TYR A 136      37.529  40.220  12.007  1.00 33.89     0.027 A 
ATOM     12  CZ  TYR A 136      36.870  41.039  11.089  1.00 34.34     0.131 A 
ATOM     13  OH  TYR A 136      36.704  42.395  11.337  1.00 35.14    -0.190 OA
ATOM     14  CE1 TYR A 136      36.375  40.508   9.906  1.00 35.01     0.027 A 
ATOM     15  CD1 TYR A 136      36.536  39.146   9.646  1.00 33.57    -0.002 A 
ENDBRANCH   8   9
ENDBRANCH   7   8
END_RES TYR A 136
BEGIN_RES ASN A 133
REMARK  2 active torsions:
REMARK  status: ('A' for Active; 'I' for Inactive)
REMARK    7  A    between atoms: CA   and  CB  
REMARK    8  A    between atoms: CB   and  CG  
ROOT
ATOM     16  CA  ASN A 133      31.225  30.257  11.749  1.00 18.15     0.196 C 
ENDROOT
BRANCH  16  17
ATOM     17  CB  ASN A 133      30.092  31.240  11.460  1.00 18.27     0.126 C 
BRANCH  17  18
ATOM     18  CG  ASN A 133      28.751  30.583  11.356  1.00 18.94     0.276 C 
ATOM     19  OD1 ASN A 133      28.571  29.611  10.619  1.00 18.09    -0.269 OA
ATOM     20  ND2 ASN A 133      27.782  31.114  12.101  1.00 18.93    -0.107 N 
ENDBRANCH  17  18
ENDBRANCH  16  17
END_RES ASN A 133
