REMARK VINA RESULT:    -3.934      5.853      9.551
REMARK INTER + INTRA:          -8.507
REMARK INTER:                  -6.005
REMARK INTRA:                  -2.502
REMARK UNBOUND:                -3.654
REMARK SMILES CC(=O)Oc1ccccc1Cn1cc(C)nn1
REMARK SMILES IDX 10 1 5 2 6 3 7 4 8 5 9 6 11 7 12 8 15 9 14 10 13 11 16 12
REMARK SMILES IDX 17 13 4 14 2 15 3 16 1 17
REMARK H PARENT
REMARK Flexibility Score: inf
ROOT
ATOM      1  C   UNL     1      26.511  35.732   8.329  1.00  0.00     0.016 A 
ATOM      2  C   UNL     1      26.239  37.012   7.918  1.00  0.00     0.135 A 
ATOM      3  C   UNL     1      26.817  37.610   6.807  1.00  0.00     0.047 A 
ATOM      4  C   UNL     1      27.724  36.891   6.060  1.00  0.00     0.004 A 
ATOM      5  C   UNL     1      28.019  35.612   6.443  1.00  0.00     0.001 A 
ATOM      6  C   UNL     1      27.427  35.027   7.563  1.00  0.00     0.009 A 
ENDROOT
BRANCH   1   7
ATOM      7  C   UNL     1      25.853  35.123   9.512  1.00  0.00     0.185 C 
BRANCH   7   8
ATOM      8  N   UNL     1      26.750  35.190  10.651  1.00  0.00    -0.248 N 
ATOM      9  C   UNL     1      29.505  34.187  12.838  1.00  0.00     0.070 C 
ATOM     10  C   UNL     1      28.357  34.825  12.155  1.00  0.00     0.080 A 
ATOM     11  C   UNL     1      27.753  34.366  10.981  1.00  0.00     0.134 A 
ATOM     12  N   UNL     1      27.663  35.929  12.474  1.00  0.00    -0.136 NA
ATOM     13  N   UNL     1      26.709  36.147  11.582  1.00  0.00    -0.067 NA
ENDBRANCH   7   8
ENDBRANCH   1   7
BRANCH   2  14
ATOM     14  O   UNL     1      25.327  37.801   8.637  1.00  0.00    -0.426 OA
BRANCH  14  15
ATOM     15  C   UNL     1      24.202  38.209   7.924  1.00  0.00     0.308 C 
ATOM     16  O   UNL     1      24.088  39.398   7.523  1.00  0.00    -0.252 OA
ATOM     17  C   UNL     1      23.125  37.250   7.630  1.00  0.00     0.139 C 
ENDBRANCH  14  15
ENDBRANCH   2  14
TORSDOF 4
BEGIN_RES LYS A 135
REMARK  4 active torsions:
REMARK  status: ('A' for Active; 'I' for Inactive)
REMARK    1  A    between atoms: CA   and  CB  
REMARK    2  A    between atoms: CB   and  CG  
REMARK    3  A    between atoms: CG   and  CD  
REMARK    4  A    between atoms: CD   and  CE  
ROOT
ATOM      1  CA  LYS A 135      33.193  34.663   9.290  1.00 25.02     0.186 C 
ENDROOT
BRANCH   1   2
ATOM      2  CB  LYS A 135      32.060  35.360  10.034  1.00 26.63     0.034 C 
BRANCH   2   3
ATOM      3  CG  LYS A 135      30.786  35.460   9.235  1.00 29.45     0.005 C 
BRANCH   3   4
ATOM      4  CD  LYS A 135      30.518  36.901   8.831  1.00 32.00     0.041 C 
BRANCH   4   5
ATOM      5  CE  LYS A 135      29.479  37.525   9.743  1.00 34.25     0.338 C 
ATOM      6  NZ  LYS A 135      29.123  38.899   9.291  1.00 35.99     0.618 N 
ENDBRANCH   4   5
ENDBRANCH   3   4
ENDBRANCH   2   3
ENDBRANCH   1   2
END_RES LYS A 135
BEGIN_RES TYR A 136
REMARK  2 active torsions:
REMARK  status: ('A' for Active; 'I' for Inactive)
REMARK    5  A    between atoms: CA   and  CB  
REMARK    6  A    between atoms: CB   and  CG  
ROOT
ATOM      7  CA  TYR A 136      36.583  36.399   8.994  1.00 26.14     0.191 C 
ENDROOT
BRANCH   7   8
ATOM      8  CB  TYR A 136      37.367  36.835  10.240  1.00 28.16     0.060 C 
BRANCH   8   9
ATOM      9  CG  TYR A 136      37.198  38.303  10.548  1.00 31.88    -0.020 A 
ATOM     10  CD2 TYR A 136      37.740  38.866  11.705  1.00 32.67    -0.002 A 
ATOM     11  CE2 TYR A 136      37.576  40.230  11.982  1.00 33.89     0.027 A 
ATOM     12  CZ  TYR A 136      36.863  41.038  11.093  1.00 34.34     0.131 A 
ATOM     13  OH  TYR A 136      36.695  42.392  11.344  1.00 35.14    -0.190 OA
ATOM     14  CE1 TYR A 136      36.318  40.495   9.939  1.00 35.01     0.027 A 
ATOM     15  CD1 TYR A 136      36.482  39.134   9.677  1.00 33.57    -0.002 A 
ENDBRANCH   8   9
ENDBRANCH   7   8
END_RES TYR A 136
BEGIN_RES ASN A 133
REMARK  2 active torsions:
REMARK  status: ('A' for Active; 'I' for Inactive)
REMARK    7  A    between atoms: CA   and  CB  
REMARK    8  A    between atoms: CB   and  CG  
ROOT
ATOM     16  CA  ASN A 133      31.225  30.257  11.749  1.00 18.15     0.196 C 
ENDROOT
BRANCH  16  17
ATOM     17  CB  ASN A 133      30.092  31.240  11.460  1.00 18.27     0.126 C 
BRANCH  17  18
ATOM     18  CG  ASN A 133      28.745  30.589  11.402  1.00 18.94     0.276 C 
ATOM     19  OD1 ASN A 133      28.510  29.677  10.607  1.00 18.09    -0.269 OA
ATOM     20  ND2 ASN A 133      27.834  31.059  12.254  1.00 18.93    -0.107 N 
ENDBRANCH  17  18
ENDBRANCH  16  17
END_RES ASN A 133
