REMARK VINA RESULT:    -5.184      4.022      6.950
REMARK INTER + INTRA:          -8.750
REMARK INTER:                  -5.306
REMARK INTRA:                  -3.444
REMARK UNBOUND:                -3.263
REMARK SMILES Cc1cn(C2c3ccccc3-c3ccccc32)nn1
REMARK SMILES IDX 5 1 6 2 7 3 8 4 9 5 10 6 11 7 12 8 13 9 14 10 15 11 16 12
REMARK SMILES IDX 17 13 4 14 1 15 2 16 3 17 19 18 18 19
REMARK H PARENT
REMARK Flexibility Score: inf
ROOT
ATOM      1  C   UNL     1      29.461  31.968  18.833  1.00  0.00     0.170 C 
ATOM      2  C   UNL     1      28.704  30.933  18.113  1.00  0.00    -0.011 A 
ATOM      3  C   UNL     1      27.738  30.063  18.595  1.00  0.00     0.007 A 
ATOM      4  C   UNL     1      27.145  29.158  17.740  1.00  0.00     0.000 A 
ATOM      5  C   UNL     1      27.531  29.139  16.408  1.00  0.00     0.001 A 
ATOM      6  C   UNL     1      28.496  30.009  15.924  1.00  0.00     0.009 A 
ATOM      7  C   UNL     1      29.079  30.910  16.797  1.00  0.00    -0.012 A 
ATOM      8  C   UNL     1      30.094  31.928  16.612  1.00  0.00    -0.012 A 
ATOM      9  C   UNL     1      30.783  32.284  15.445  1.00  0.00     0.009 A 
ATOM     10  C   UNL     1      31.707  33.289  15.520  1.00  0.00     0.001 A 
ATOM     11  C   UNL     1      31.989  33.966  16.695  1.00  0.00     0.000 A 
ATOM     12  C   UNL     1      31.289  33.578  17.803  1.00  0.00     0.007 A 
ATOM     13  C   UNL     1      30.332  32.563  17.806  1.00  0.00    -0.011 A 
ENDROOT
BRANCH   1  14
ATOM     14  N   UNL     1      30.164  31.441  19.955  1.00  0.00    -0.240 N 
ATOM     15  C   UNL     1      32.423  29.116  21.596  1.00  0.00     0.070 C 
ATOM     16  C   UNL     1      31.478  30.187  21.211  1.00  0.00     0.080 A 
ATOM     17  C   UNL     1      30.991  30.389  19.928  1.00  0.00     0.135 A 
ATOM     18  N   UNL     1      30.920  31.136  21.966  1.00  0.00    -0.136 NA
ATOM     19  N   UNL     1      30.126  31.889  21.191  1.00  0.00    -0.066 NA
ENDBRANCH   1  14
TORSDOF 1
BEGIN_RES LYS A 135
REMARK  4 active torsions:
REMARK  status: ('A' for Active; 'I' for Inactive)
REMARK    1  A    between atoms: CA   and  CB  
REMARK    2  A    between atoms: CB   and  CG  
REMARK    3  A    between atoms: CG   and  CD  
REMARK    4  A    between atoms: CD   and  CE  
ROOT
ATOM      1  CA  LYS A 135      33.193  34.663   9.290  1.00 25.02     0.186 C 
ENDROOT
BRANCH   1   2
ATOM      2  CB  LYS A 135      32.060  35.360  10.034  1.00 26.63     0.034 C 
BRANCH   2   3
ATOM      3  CG  LYS A 135      30.807  35.519   9.212  1.00 29.45     0.005 C 
BRANCH   3   4
ATOM      4  CD  LYS A 135      30.136  34.172   8.991  1.00 32.00     0.041 C 
BRANCH   4   5
ATOM      5  CE  LYS A 135      28.672  34.358   8.642  1.00 34.25     0.338 C 
ATOM      6  NZ  LYS A 135      27.793  33.677   9.632  1.00 35.99     0.618 N 
ENDBRANCH   4   5
ENDBRANCH   3   4
ENDBRANCH   2   3
ENDBRANCH   1   2
END_RES LYS A 135
BEGIN_RES TYR A 136
REMARK  2 active torsions:
REMARK  status: ('A' for Active; 'I' for Inactive)
REMARK    5  A    between atoms: CA   and  CB  
REMARK    6  A    between atoms: CB   and  CG  
ROOT
ATOM      7  CA  TYR A 136      36.583  36.399   8.994  1.00 26.14     0.191 C 
ENDROOT
BRANCH   7   8
ATOM      8  CB  TYR A 136      37.367  36.835  10.240  1.00 28.16     0.060 C 
BRANCH   8   9
ATOM      9  CG  TYR A 136      37.209  38.305  10.540  1.00 31.88    -0.020 A 
ATOM     10  CD2 TYR A 136      36.451  39.135   9.711  1.00 32.67    -0.002 A 
ATOM     11  CE2 TYR A 136      36.312  40.500   9.997  1.00 33.89     0.027 A 
ATOM     12  CZ  TYR A 136      36.937  41.040  11.124  1.00 34.34     0.131 A 
ATOM     13  OH  TYR A 136      36.807  42.387  11.431  1.00 35.14    -0.190 OA
ATOM     14  CE1 TYR A 136      37.694  40.230  11.958  1.00 35.01     0.027 A 
ATOM     15  CD1 TYR A 136      37.831  38.874  11.659  1.00 33.57    -0.002 A 
ENDBRANCH   8   9
ENDBRANCH   7   8
END_RES TYR A 136
BEGIN_RES ASN A 133
REMARK  2 active torsions:
REMARK  status: ('A' for Active; 'I' for Inactive)
REMARK    7  A    between atoms: CA   and  CB  
REMARK    8  A    between atoms: CB   and  CG  
ROOT
ATOM     16  CA  ASN A 133      31.225  30.257  11.749  1.00 18.15     0.196 C 
ENDROOT
BRANCH  16  17
ATOM     17  CB  ASN A 133      30.092  31.240  11.460  1.00 18.27     0.126 C 
BRANCH  17  18
ATOM     18  CG  ASN A 133      28.748  30.585  11.372  1.00 18.94     0.276 C 
ATOM     19  OD1 ASN A 133      28.557  29.618  10.632  1.00 18.09    -0.269 OA
ATOM     20  ND2 ASN A 133      27.792  31.112  12.135  1.00 18.93    -0.107 N 
ENDBRANCH  17  18
ENDBRANCH  16  17
END_RES ASN A 133
