REMARK VINA RESULT:    -6.949      0.000      0.000
REMARK INTER + INTRA:         -12.149
REMARK INTER:                  -8.423
REMARK INTRA:                  -3.726
REMARK UNBOUND:                -3.778
REMARK SMILES Cc1cn(-c2ccc(-c3c4ccc(=O)cc-4oc4cc(O)ccc34)c(C(=O)[O-])c2)nn1
REMARK SMILES IDX 9 1 24 2 23 3 22 4 20 5 19 6 18 7 17 8 16 9 15 10 13 11
REMARK SMILES IDX 14 12 12 13 11 14 10 15 8 16 5 17 29 18 6 19 25 20 7 21 4 22
REMARK SMILES IDX 1 23 2 24 3 25 31 26 30 27 26 28 27 29 28 30 21 31
REMARK H PARENT 21 32
REMARK Flexibility Score: inf
ROOT
ATOM      1  C   UNL     1      32.728  35.426  13.701  1.00  0.00     0.004 A 
ATOM      2  C   UNL     1      32.227  36.429  12.898  1.00  0.00     0.026 A 
ATOM      3  C   UNL     1      33.090  37.236  12.190  1.00  0.00     0.016 A 
ATOM      4  C   UNL     1      32.630  38.256  11.372  1.00  0.00     0.047 A 
ATOM      5  C   UNL     1      31.269  38.448  11.281  1.00  0.00     0.119 A 
ATOM      6  C   UNL     1      30.403  37.641  11.989  1.00  0.00     0.093 A 
ATOM      7  C   UNL     1      30.853  36.610  12.816  1.00  0.00     0.139 A 
ATOM      8  O   UNL     1      30.001  35.860  13.476  1.00  0.00    -0.456 OA
ATOM      9  C   UNL     1      30.374  34.894  14.253  1.00  0.00     0.139 A 
ATOM     10  C   UNL     1      29.512  34.089  14.958  1.00  0.00     0.099 A 
ATOM     11  C   UNL     1      30.032  33.094  15.753  1.00  0.00     0.182 A 
ATOM     12  O   UNL     1      29.237  32.364  16.394  1.00  0.00    -0.290 OA
ATOM     13  C   UNL     1      31.392  32.871  15.870  1.00  0.00     0.053 A 
ATOM     14  C   UNL     1      32.314  33.639  15.193  1.00  0.00     0.016 A 
ATOM     15  C   UNL     1      31.818  34.649  14.384  1.00  0.00     0.026 A 
ENDROOT
BRANCH   1  16
ATOM     16  C   UNL     1      34.161  35.243  13.780  1.00  0.00    -0.008 A 
ATOM     17  C   UNL     1      36.930  34.935  13.994  1.00  0.00     0.067 A 
ATOM     18  C   UNL     1      36.256  35.735  14.892  1.00  0.00     0.039 A 
ATOM     19  C   UNL     1      36.234  34.285  12.987  1.00  0.00     0.029 A 
ATOM     20  C   UNL     1      34.885  35.875  14.770  1.00  0.00     0.007 A 
ATOM     21  C   UNL     1      34.862  34.447  12.893  1.00  0.00     0.012 A 
BRANCH  17  22
ATOM     22  N   UNL     1      38.338  34.754  14.070  1.00  0.00    -0.220 N 
ATOM     23  C   UNL     1      41.589  33.829  12.610  1.00  0.00     0.070 C 
ATOM     24  C   UNL     1      40.424  34.255  13.440  1.00  0.00     0.080 A 
ATOM     25  C   UNL     1      39.108  34.320  13.030  1.00  0.00     0.140 A 
ATOM     26  N   UNL     1      40.412  34.656  14.724  1.00  0.00    -0.135 NA
ATOM     27  N   UNL     1      39.157  34.944  15.067  1.00  0.00    -0.062 NA
ENDBRANCH  17  22
BRANCH  20  28
ATOM     28  C   UNL     1      34.185  36.724  15.727  1.00  0.00     0.072 C 
ATOM     29  O   UNL     1      33.978  37.939  15.505  1.00  0.00    -0.545 OA
ATOM     30  O   UNL     1      33.716  36.210  16.928  1.00  0.00    -0.545 OA
ENDBRANCH  20  28
ENDBRANCH   1  16
BRANCH   5  31
ATOM     31  O   UNL     1      30.792  39.478  10.454  1.00  0.00    -0.508 OA
ATOM     32  H   UNL     1      30.445  39.263   9.530  1.00  0.00     0.293 HD
ENDBRANCH   5  31
TORSDOF 4
BEGIN_RES LYS A 135
REMARK  4 active torsions:
REMARK  status: ('A' for Active; 'I' for Inactive)
REMARK    1  A    between atoms: CA   and  CB  
REMARK    2  A    between atoms: CB   and  CG  
REMARK    3  A    between atoms: CG   and  CD  
REMARK    4  A    between atoms: CD   and  CE  
ROOT
ATOM      1  CA  LYS A 135      33.193  34.663   9.290  1.00 25.02     0.186 C 
ENDROOT
BRANCH   1   2
ATOM      2  CB  LYS A 135      32.060  35.360  10.034  1.00 26.63     0.034 C 
BRANCH   2   3
ATOM      3  CG  LYS A 135      30.731  34.664   9.896  1.00 29.45     0.005 C 
BRANCH   3   4
ATOM      4  CD  LYS A 135      30.317  34.581   8.435  1.00 32.00     0.041 C 
BRANCH   4   5
ATOM      5  CE  LYS A 135      28.806  34.554   8.310  1.00 34.25     0.338 C 
ATOM      6  NZ  LYS A 135      28.187  33.818   9.447  1.00 35.99     0.618 N 
ENDBRANCH   4   5
ENDBRANCH   3   4
ENDBRANCH   2   3
ENDBRANCH   1   2
END_RES LYS A 135
BEGIN_RES TYR A 136
REMARK  2 active torsions:
REMARK  status: ('A' for Active; 'I' for Inactive)
REMARK    5  A    between atoms: CA   and  CB  
REMARK    6  A    between atoms: CB   and  CG  
ROOT
ATOM      7  CA  TYR A 136      36.583  36.399   8.994  1.00 26.14     0.191 C 
ENDROOT
BRANCH   7   8
ATOM      8  CB  TYR A 136      37.367  36.835  10.240  1.00 28.16     0.060 C 
BRANCH   8   9
ATOM      9  CG  TYR A 136      36.771  38.052  10.904  1.00 31.88    -0.020 A 
ATOM     10  CD2 TYR A 136      36.282  39.121  10.150  1.00 32.67    -0.002 A 
ATOM     11  CE2 TYR A 136      35.732  40.247  10.776  1.00 33.89     0.027 A 
ATOM     12  CZ  TYR A 136      35.671  40.305  12.171  1.00 34.34     0.131 A 
ATOM     13  OH  TYR A 136      35.125  41.408  12.812  1.00 35.14    -0.190 OA
ATOM     14  CE1 TYR A 136      36.154  39.253  12.936  1.00 35.01     0.027 A 
ATOM     15  CD1 TYR A 136      36.705  38.139  12.300  1.00 33.57    -0.002 A 
ENDBRANCH   8   9
ENDBRANCH   7   8
END_RES TYR A 136
BEGIN_RES ASN A 133
REMARK  2 active torsions:
REMARK  status: ('A' for Active; 'I' for Inactive)
REMARK    7  A    between atoms: CA   and  CB  
REMARK    8  A    between atoms: CB   and  CG  
ROOT
ATOM     16  CA  ASN A 133      31.225  30.257  11.749  1.00 18.15     0.196 C 
ENDROOT
BRANCH  16  17
ATOM     17  CB  ASN A 133      30.092  31.240  11.460  1.00 18.27     0.126 C 
BRANCH  17  18
ATOM     18  CG  ASN A 133      28.757  30.578  11.313  1.00 18.94     0.276 C 
ATOM     19  OD1 ASN A 133      28.605  29.606  10.571  1.00 18.09    -0.269 OA
ATOM     20  ND2 ASN A 133      27.763  31.105  12.027  1.00 18.93    -0.107 N 
ENDBRANCH  17  18
ENDBRANCH  16  17
END_RES ASN A 133
