REMARK VINA RESULT:    -3.818      3.906      6.507
REMARK INTER + INTRA:          -7.708
REMARK INTER:                  -4.455
REMARK INTRA:                  -3.253
REMARK UNBOUND:                -3.109
REMARK SMILES Cc1cn(Cc2ccc(C(=O)O)cc2)nn1
REMARK SMILES IDX 6 1 7 2 8 3 9 4 13 5 14 6 5 7 4 8 1 9 2 10 3 11 16 12 15 13
REMARK SMILES IDX 10 14 11 15 12 16
REMARK H PARENT 12 17
REMARK Flexibility Score: inf
ROOT
ATOM      1  C   UNL     1      29.809  31.798  19.236  1.00  0.00    -0.026 A 
ATOM      2  C   UNL     1      28.703  31.001  19.078  1.00  0.00     0.006 A 
ATOM      3  C   UNL     1      28.698  29.740  19.629  1.00  0.00     0.016 A 
ATOM      4  C   UNL     1      29.757  29.223  20.344  1.00  0.00     0.059 A 
ATOM      5  C   UNL     1      30.847  30.065  20.476  1.00  0.00     0.016 A 
ATOM      6  C   UNL     1      30.883  31.329  19.937  1.00  0.00     0.006 A 
ENDROOT
BRANCH   1   7
ATOM      7  C   UNL     1      29.862  33.172  18.658  1.00  0.00     0.181 C 
BRANCH   7   8
ATOM      8  N   UNL     1      30.611  33.121  17.412  1.00  0.00    -0.248 N 
ATOM      9  C   UNL     1      32.880  34.417  14.816  1.00  0.00     0.070 C 
ATOM     10  C   UNL     1      31.953  33.706  15.729  1.00  0.00     0.080 A 
ATOM     11  C   UNL     1      31.412  34.106  16.923  1.00  0.00     0.134 A 
ATOM     12  N   UNL     1      31.463  32.468  15.513  1.00  0.00    -0.136 NA
ATOM     13  N   UNL     1      30.668  32.142  16.525  1.00  0.00    -0.067 NA
ENDBRANCH   7   8
ENDBRANCH   1   7
BRANCH   4  14
ATOM     14  C   UNL     1      29.728  27.885  20.918  1.00  0.00     0.335 C 
ATOM     15  O   UNL     1      30.135  27.753  22.098  1.00  0.00    -0.246 OA
BRANCH  14  16
ATOM     16  O   UNL     1      29.286  26.778  20.245  1.00  0.00    -0.478 OA
ATOM     17  H   UNL     1      29.775  26.354  19.452  1.00  0.00     0.297 HD
ENDBRANCH  14  16
ENDBRANCH   4  14
TORSDOF 4
BEGIN_RES LYS A 135
REMARK  4 active torsions:
REMARK  status: ('A' for Active; 'I' for Inactive)
REMARK    1  A    between atoms: CA   and  CB  
REMARK    2  A    between atoms: CB   and  CG  
REMARK    3  A    between atoms: CG   and  CD  
REMARK    4  A    between atoms: CD   and  CE  
ROOT
ATOM      1  CA  LYS A 135      33.193  34.663   9.290  1.00 25.02     0.186 C 
ENDROOT
BRANCH   1   2
ATOM      2  CB  LYS A 135      32.060  35.360  10.034  1.00 26.63     0.034 C 
BRANCH   2   3
ATOM      3  CG  LYS A 135      30.840  35.601   9.184  1.00 29.45     0.005 C 
BRANCH   3   4
ATOM      4  CD  LYS A 135      30.289  34.288   8.650  1.00 32.00     0.041 C 
BRANCH   4   5
ATOM      5  CE  LYS A 135      28.783  34.369   8.489  1.00 34.25     0.338 C 
ATOM      6  NZ  LYS A 135      28.085  33.783   9.666  1.00 35.99     0.618 N 
ENDBRANCH   4   5
ENDBRANCH   3   4
ENDBRANCH   2   3
ENDBRANCH   1   2
END_RES LYS A 135
BEGIN_RES TYR A 136
REMARK  2 active torsions:
REMARK  status: ('A' for Active; 'I' for Inactive)
REMARK    5  A    between atoms: CA   and  CB  
REMARK    6  A    between atoms: CB   and  CG  
ROOT
ATOM      7  CA  TYR A 136      36.583  36.399   8.994  1.00 26.14     0.191 C 
ENDROOT
BRANCH   7   8
ATOM      8  CB  TYR A 136      37.367  36.835  10.240  1.00 28.16     0.060 C 
BRANCH   8   9
ATOM      9  CG  TYR A 136      37.202  38.303  10.545  1.00 31.88    -0.020 A 
ATOM     10  CD2 TYR A 136      36.065  38.782  11.200  1.00 32.67    -0.002 A 
ATOM     11  CE2 TYR A 136      35.920  40.149  11.478  1.00 33.89     0.027 A 
ATOM     12  CZ  TYR A 136      36.922  41.044  11.095  1.00 34.34     0.131 A 
ATOM     13  OH  TYR A 136      36.803  42.400  11.366  1.00 35.14    -0.190 OA
ATOM     14  CE1 TYR A 136      38.057  40.586  10.443  1.00 35.01     0.027 A 
ATOM     15  CD1 TYR A 136      38.187  39.224  10.167  1.00 33.57    -0.002 A 
ENDBRANCH   8   9
ENDBRANCH   7   8
END_RES TYR A 136
BEGIN_RES ASN A 133
REMARK  2 active torsions:
REMARK  status: ('A' for Active; 'I' for Inactive)
REMARK    7  A    between atoms: CA   and  CB  
REMARK    8  A    between atoms: CB   and  CG  
ROOT
ATOM     16  CA  ASN A 133      31.225  30.257  11.749  1.00 18.15     0.196 C 
ENDROOT
BRANCH  16  17
ATOM     17  CB  ASN A 133      30.092  31.240  11.460  1.00 18.27     0.126 C 
BRANCH  17  18
ATOM     18  CG  ASN A 133      28.750  30.583  11.360  1.00 18.94     0.276 C 
ATOM     19  OD1 ASN A 133      28.572  29.602  10.637  1.00 18.09    -0.269 OA
ATOM     20  ND2 ASN A 133      27.779  31.127  12.094  1.00 18.93    -0.107 N 
ENDBRANCH  17  18
ENDBRANCH  16  17
END_RES ASN A 133
