REMARK VINA RESULT:    -4.159      4.389      6.781
REMARK INTER + INTRA:          -8.312
REMARK INTER:                  -4.826
REMARK INTRA:                  -3.486
REMARK UNBOUND:                -3.545
REMARK SMILES Cc1cn(-c2ccc(O)c([N+](=O)[O-])c2)nn1
REMARK SMILES IDX 5 1 6 2 7 3 8 4 10 5 14 6 4 7 1 8 2 9 3 10 16 11 15 12 11 13
REMARK SMILES IDX 12 14 13 15 9 16
REMARK H PARENT 9 17
REMARK Flexibility Score: inf
ROOT
ATOM      1  C   UNL     1      28.715  31.396  15.617  1.00  0.00     0.073 A 
ATOM      2  C   UNL     1      29.832  31.087  16.364  1.00  0.00     0.033 A 
ATOM      3  C   UNL     1      31.024  31.747  16.148  1.00  0.00     0.056 A 
ATOM      4  C   UNL     1      31.075  32.706  15.187  1.00  0.00     0.194 A 
ATOM      5  C   UNL     1      29.979  33.043  14.420  1.00  0.00     0.312 A 
ATOM      6  C   UNL     1      28.805  32.361  14.665  1.00  0.00     0.118 A 
ENDROOT
BRANCH   1   7
ATOM      7  N   UNL     1      27.499  30.673  15.888  1.00  0.00    -0.220 N 
ATOM      8  C   UNL     1      25.411  28.186  17.613  1.00  0.00     0.070 C 
ATOM      9  C   UNL     1      26.040  29.245  16.779  1.00  0.00     0.080 A 
ATOM     10  C   UNL     1      27.341  29.704  16.808  1.00  0.00     0.140 A 
ATOM     11  N   UNL     1      25.437  29.969  15.818  1.00  0.00    -0.135 NA
ATOM     12  N   UNL     1      26.328  30.815  15.300  1.00  0.00    -0.062 NA
ENDBRANCH   1   7
BRANCH   5  13
ATOM     13  N   UNL     1      30.079  34.064  13.414  1.00  0.00     0.066 N 
ATOM     14  O   UNL     1      29.977  33.817  12.197  1.00  0.00    -0.258 OA
ATOM     15  O   UNL     1      30.296  35.344  13.862  1.00  0.00    -0.258 OA
ENDBRANCH   5  13
BRANCH   4  16
ATOM     16  O   UNL     1      32.254  33.375  14.958  1.00  0.00    -0.502 OA
ATOM     17  H   UNL     1      32.623  34.092  15.564  1.00  0.00     0.293 HD
ENDBRANCH   4  16
TORSDOF 3
BEGIN_RES LYS A 135
REMARK  4 active torsions:
REMARK  status: ('A' for Active; 'I' for Inactive)
REMARK    1  A    between atoms: CA   and  CB  
REMARK    2  A    between atoms: CB   and  CG  
REMARK    3  A    between atoms: CG   and  CD  
REMARK    4  A    between atoms: CD   and  CE  
ROOT
ATOM      1  CA  LYS A 135      33.193  34.663   9.290  1.00 25.02     0.186 C 
ENDROOT
BRANCH   1   2
ATOM      2  CB  LYS A 135      32.060  35.360  10.034  1.00 26.63     0.034 C 
BRANCH   2   3
ATOM      3  CG  LYS A 135      30.847  35.619   9.178  1.00 29.45     0.005 C 
BRANCH   3   4
ATOM      4  CD  LYS A 135      30.229  34.310   8.713  1.00 32.00     0.041 C 
BRANCH   4   5
ATOM      5  CE  LYS A 135      28.754  34.495   8.411  1.00 34.25     0.338 C 
ATOM      6  NZ  LYS A 135      27.908  33.815   9.430  1.00 35.99     0.618 N 
ENDBRANCH   4   5
ENDBRANCH   3   4
ENDBRANCH   2   3
ENDBRANCH   1   2
END_RES LYS A 135
BEGIN_RES TYR A 136
REMARK  2 active torsions:
REMARK  status: ('A' for Active; 'I' for Inactive)
REMARK    5  A    between atoms: CA   and  CB  
REMARK    6  A    between atoms: CB   and  CG  
ROOT
ATOM      7  CA  TYR A 136      36.583  36.399   8.994  1.00 26.14     0.191 C 
ENDROOT
BRANCH   7   8
ATOM      8  CB  TYR A 136      37.367  36.835  10.240  1.00 28.16     0.060 C 
BRANCH   8   9
ATOM      9  CG  TYR A 136      37.183  38.298  10.558  1.00 31.88    -0.020 A 
ATOM     10  CD2 TYR A 136      36.089  38.745  11.303  1.00 32.67    -0.002 A 
ATOM     11  CE2 TYR A 136      35.927  40.106  11.592  1.00 33.89     0.027 A 
ATOM     12  CZ  TYR A 136      36.868  41.030  11.131  1.00 34.34     0.131 A 
ATOM     13  OH  TYR A 136      36.731  42.383  11.411  1.00 35.14    -0.190 OA
ATOM     14  CE1 TYR A 136      37.960  40.605  10.389  1.00 35.01     0.027 A 
ATOM     15  CD1 TYR A 136      38.108  39.247  10.102  1.00 33.57    -0.002 A 
ENDBRANCH   8   9
ENDBRANCH   7   8
END_RES TYR A 136
BEGIN_RES ASN A 133
REMARK  2 active torsions:
REMARK  status: ('A' for Active; 'I' for Inactive)
REMARK    7  A    between atoms: CA   and  CB  
REMARK    8  A    between atoms: CB   and  CG  
ROOT
ATOM     16  CA  ASN A 133      31.225  30.257  11.749  1.00 18.15     0.196 C 
ENDROOT
BRANCH  16  17
ATOM     17  CB  ASN A 133      30.092  31.240  11.460  1.00 18.27     0.126 C 
BRANCH  17  18
ATOM     18  CG  ASN A 133      28.773  30.571  11.228  1.00 18.94     0.276 C 
ATOM     19  OD1 ASN A 133      28.687  29.549  10.545  1.00 18.09    -0.269 OA
ATOM     20  ND2 ASN A 133      27.717  31.149  11.801  1.00 18.93    -0.107 N 
ENDBRANCH  17  18
ENDBRANCH  16  17
END_RES ASN A 133
