REMARK VINA RESULT:    -4.591      2.098      3.564
REMARK INTER + INTRA:          -8.142
REMARK INTER:                  -5.096
REMARK INTRA:                  -3.046
REMARK UNBOUND:                -3.283
REMARK SMILES Cc1cn(C23CC4CC(CC(C4)C2)C3)nn1
REMARK SMILES IDX 5 1 14 2 9 3 8 4 7 5 12 6 11 7 10 8 13 9 6 10 4 11 1 12 2 13
REMARK SMILES IDX 3 14 16 15 15 16
REMARK H PARENT
REMARK Flexibility Score: inf
ROOT
ATOM      1  C   UNL     1      32.111  35.185  14.197  1.00  0.00     0.065 C 
ATOM      2  C   UNL     1      33.530  34.713  14.492  1.00  0.00     0.034 C 
ATOM      3  C   UNL     1      34.499  35.818  14.085  1.00  0.00    -0.008 C 
ATOM      4  C   UNL     1      34.151  37.028  14.906  1.00  0.00     0.007 C 
ATOM      5  C   UNL     1      32.775  37.505  14.531  1.00  0.00    -0.008 C 
ATOM      6  C   UNL     1      32.630  37.766  13.067  1.00  0.00     0.007 C 
ATOM      7  C   UNL     1      32.908  36.498  12.296  1.00  0.00    -0.008 C 
ATOM      8  C   UNL     1      34.348  36.093  12.617  1.00  0.00     0.007 C 
ATOM      9  C   UNL     1      32.025  35.366  12.699  1.00  0.00     0.034 C 
ATOM     10  C   UNL     1      31.784  36.447  14.953  1.00  0.00     0.034 C 
ENDROOT
BRANCH   1  11
ATOM     11  N   UNL     1      31.217  34.093  14.551  1.00  0.00    -0.246 N 
ATOM     12  C   UNL     1      30.423  31.190  16.572  1.00  0.00     0.070 C 
ATOM     13  C   UNL     1      30.484  32.316  15.620  1.00  0.00     0.080 A 
ATOM     14  C   UNL     1      31.514  33.216  15.528  1.00  0.00     0.134 A 
ATOM     15  N   UNL     1      29.588  32.694  14.674  1.00  0.00    -0.136 NA
ATOM     16  N   UNL     1      30.057  33.763  14.048  1.00  0.00    -0.067 NA
ENDBRANCH   1  11
TORSDOF 1
BEGIN_RES LYS A 135
REMARK  4 active torsions:
REMARK  status: ('A' for Active; 'I' for Inactive)
REMARK    1  A    between atoms: CA   and  CB  
REMARK    2  A    between atoms: CB   and  CG  
REMARK    3  A    between atoms: CG   and  CD  
REMARK    4  A    between atoms: CD   and  CE  
ROOT
ATOM      1  CA  LYS A 135      33.193  34.663   9.290  1.00 25.02     0.186 C 
ENDROOT
BRANCH   1   2
ATOM      2  CB  LYS A 135      32.060  35.360  10.034  1.00 26.63     0.034 C 
BRANCH   2   3
ATOM      3  CG  LYS A 135      30.832  35.583   9.190  1.00 29.45     0.005 C 
BRANCH   3   4
ATOM      4  CD  LYS A 135      30.284  34.259   8.680  1.00 32.00     0.041 C 
BRANCH   4   5
ATOM      5  CE  LYS A 135      28.875  34.032   9.194  1.00 34.25     0.338 C 
ATOM      6  NZ  LYS A 135      27.868  34.661   8.296  1.00 35.99     0.618 N 
ENDBRANCH   4   5
ENDBRANCH   3   4
ENDBRANCH   2   3
ENDBRANCH   1   2
END_RES LYS A 135
BEGIN_RES TYR A 136
REMARK  2 active torsions:
REMARK  status: ('A' for Active; 'I' for Inactive)
REMARK    5  A    between atoms: CA   and  CB  
REMARK    6  A    between atoms: CB   and  CG  
ROOT
ATOM      7  CA  TYR A 136      36.583  36.399   8.994  1.00 26.14     0.191 C 
ENDROOT
BRANCH   7   8
ATOM      8  CB  TYR A 136      37.367  36.835  10.240  1.00 28.16     0.060 C 
BRANCH   8   9
ATOM      9  CG  TYR A 136      36.708  37.980  10.969  1.00 31.88    -0.020 A 
ATOM     10  CD2 TYR A 136      37.050  38.290  12.287  1.00 32.67    -0.002 A 
ATOM     11  CE2 TYR A 136      36.430  39.354  12.957  1.00 33.89     0.027 A 
ATOM     12  CZ  TYR A 136      35.458  40.114  12.301  1.00 34.34     0.131 A 
ATOM     13  OH  TYR A 136      34.837  41.177  12.942  1.00 35.14    -0.190 OA
ATOM     14  CE1 TYR A 136      35.105  39.819  10.992  1.00 35.01     0.027 A 
ATOM     15  CD1 TYR A 136      35.725  38.753  10.338  1.00 33.57    -0.002 A 
ENDBRANCH   8   9
ENDBRANCH   7   8
END_RES TYR A 136
BEGIN_RES ASN A 133
REMARK  2 active torsions:
REMARK  status: ('A' for Active; 'I' for Inactive)
REMARK    7  A    between atoms: CA   and  CB  
REMARK    8  A    between atoms: CB   and  CG  
ROOT
ATOM     16  CA  ASN A 133      31.225  30.257  11.749  1.00 18.15     0.196 C 
ENDROOT
BRANCH  16  17
ATOM     17  CB  ASN A 133      30.092  31.240  11.460  1.00 18.27     0.126 C 
BRANCH  17  18
ATOM     18  CG  ASN A 133      28.752  30.581  11.343  1.00 18.94     0.276 C 
ATOM     19  OD1 ASN A 133      28.585  29.599  10.617  1.00 18.09    -0.269 OA
ATOM     20  ND2 ASN A 133      27.772  31.123  12.065  1.00 18.93    -0.107 N 
ENDBRANCH  17  18
ENDBRANCH  16  17
END_RES ASN A 133
