REMARK VINA RESULT:    -3.552      7.978     13.544
REMARK INTER + INTRA:          -6.759
REMARK INTER:                  -3.534
REMARK INTRA:                  -3.225
REMARK UNBOUND:                -2.999
REMARK SMILES Cc1cn([C@@H]2C[C@H]3CC[C@@H](C2)N3C)nn1
REMARK SMILES IDX 5 1 11 2 10 3 12 4 13 5 7 6 6 7 8 8 9 9 4 10 1 11 2 12 3 13
REMARK SMILES IDX 15 14 14 15
REMARK H PARENT
REMARK Flexibility Score: inf
ROOT
ATOM      1  C   UNL     1      27.696  30.071  17.142  1.00  0.00     0.112 C 
ATOM      2  C   UNL     1      28.242  30.328  15.786  1.00  0.00     0.046 C 
ATOM      3  C   UNL     1      29.093  31.525  15.641  1.00  0.00     0.058 C 
ATOM      4  N   UNL     1      28.684  32.662  16.431  1.00  0.00    -0.300 NA
ATOM      5  C   UNL     1      29.524  33.781  16.149  1.00  0.00     0.105 C 
ATOM      6  C   UNL     1      28.899  32.134  17.789  1.00  0.00     0.058 C 
ATOM      7  C   UNL     1      27.670  31.263  18.047  1.00  0.00     0.046 C 
ATOM      8  C   UNL     1      30.155  31.320  17.728  1.00  0.00     0.021 C 
ATOM      9  C   UNL     1      30.477  31.241  16.239  1.00  0.00     0.021 C 
ENDROOT
BRANCH   1  10
ATOM     10  N   UNL     1      26.379  29.476  16.999  1.00  0.00    -0.249 N 
ATOM     11  C   UNL     1      23.590  27.226  17.701  1.00  0.00     0.070 C 
ATOM     12  C   UNL     1      24.531  28.241  17.204  1.00  0.00     0.080 A 
ATOM     13  C   UNL     1      25.812  28.474  17.695  1.00  0.00     0.134 A 
ATOM     14  N   UNL     1      24.382  29.138  16.211  1.00  0.00    -0.136 NA
ATOM     15  N   UNL     1      25.471  29.848  16.107  1.00  0.00    -0.067 NA
ENDBRANCH   1  10
TORSDOF 1
BEGIN_RES LYS A 135
REMARK  4 active torsions:
REMARK  status: ('A' for Active; 'I' for Inactive)
REMARK    1  A    between atoms: CA   and  CB  
REMARK    2  A    between atoms: CB   and  CG  
REMARK    3  A    between atoms: CG   and  CD  
REMARK    4  A    between atoms: CD   and  CE  
ROOT
ATOM      1  CA  LYS A 135      33.193  34.663   9.290  1.00 25.02     0.186 C 
ENDROOT
BRANCH   1   2
ATOM      2  CB  LYS A 135      32.060  35.360  10.034  1.00 26.63     0.034 C 
BRANCH   2   3
ATOM      3  CG  LYS A 135      30.702  34.773   9.750  1.00 29.45     0.005 C 
BRANCH   3   4
ATOM      4  CD  LYS A 135      30.489  34.612   8.252  1.00 32.00     0.041 C 
BRANCH   4   5
ATOM      5  CE  LYS A 135      29.051  34.918   7.882  1.00 34.25     0.338 C 
ATOM      6  NZ  LYS A 135      28.970  35.591   6.556  1.00 35.99     0.618 N 
ENDBRANCH   4   5
ENDBRANCH   3   4
ENDBRANCH   2   3
ENDBRANCH   1   2
END_RES LYS A 135
BEGIN_RES TYR A 136
REMARK  2 active torsions:
REMARK  status: ('A' for Active; 'I' for Inactive)
REMARK    5  A    between atoms: CA   and  CB  
REMARK    6  A    between atoms: CB   and  CG  
ROOT
ATOM      7  CA  TYR A 136      36.583  36.399   8.994  1.00 26.14     0.191 C 
ENDROOT
BRANCH   7   8
ATOM      8  CB  TYR A 136      37.367  36.835  10.240  1.00 28.16     0.060 C 
BRANCH   8   9
ATOM      9  CG  TYR A 136      37.199  38.303  10.547  1.00 31.88    -0.020 A 
ATOM     10  CD2 TYR A 136      36.448  39.135   9.713  1.00 32.67    -0.002 A 
ATOM     11  CE2 TYR A 136      36.300  40.497  10.007  1.00 33.89     0.027 A 
ATOM     12  CZ  TYR A 136      36.908  41.032  11.145  1.00 34.34     0.131 A 
ATOM     13  OH  TYR A 136      36.768  42.377  11.459  1.00 35.14    -0.190 OA
ATOM     14  CE1 TYR A 136      37.658  40.220  11.984  1.00 35.01     0.027 A 
ATOM     15  CD1 TYR A 136      37.804  38.866  11.678  1.00 33.57    -0.002 A 
ENDBRANCH   8   9
ENDBRANCH   7   8
END_RES TYR A 136
BEGIN_RES ASN A 133
REMARK  2 active torsions:
REMARK  status: ('A' for Active; 'I' for Inactive)
REMARK    7  A    between atoms: CA   and  CB  
REMARK    8  A    between atoms: CB   and  CG  
ROOT
ATOM     16  CA  ASN A 133      31.225  30.257  11.749  1.00 18.15     0.196 C 
ENDROOT
BRANCH  16  17
ATOM     17  CB  ASN A 133      30.092  31.240  11.460  1.00 18.27     0.126 C 
BRANCH  17  18
ATOM     18  CG  ASN A 133      28.743  30.592  11.418  1.00 18.94     0.276 C 
ATOM     19  OD1 ASN A 133      28.514  29.641  10.668  1.00 18.09    -0.269 OA
ATOM     20  ND2 ASN A 133      27.823  31.108  12.232  1.00 18.93    -0.107 N 
ENDBRANCH  17  18
ENDBRANCH  16  17
END_RES ASN A 133
