REMARK VINA RESULT:    -2.667      4.561      6.073
REMARK INTER + INTRA:          -6.030
REMARK INTER:                  -2.716
REMARK INTRA:                  -3.314
REMARK UNBOUND:                -2.973
REMARK SMILES Cc1cn(CCO)nn1
REMARK SMILES IDX 5 1 4 2 1 3 2 4 3 5 9 6 8 7 6 8 7 9
REMARK H PARENT 7 10
REMARK Flexibility Score: inf
ROOT
ATOM      1  C   UNL     1      28.344  30.557  19.638  1.00  0.00     0.174 C 
ENDROOT
BRANCH   1   2
ATOM      2  N   UNL     1      28.776  30.687  18.262  1.00  0.00    -0.250 N 
ATOM      3  C   UNL     1      31.074  32.067  15.769  1.00  0.00     0.070 C 
ATOM      4  C   UNL     1      30.017  31.381  16.559  1.00  0.00     0.080 A 
ATOM      5  C   UNL     1      29.837  31.442  17.925  1.00  0.00     0.134 A 
ATOM      6  N   UNL     1      29.027  30.571  16.135  1.00  0.00    -0.136 NA
ATOM      7  N   UNL     1      28.304  30.173  17.166  1.00  0.00    -0.067 NA
ENDBRANCH   1   2
BRANCH   1   8
ATOM      8  C   UNL     1      28.919  29.326  20.297  1.00  0.00     0.179 C 
BRANCH   8   9
ATOM      9  O   UNL     1      28.738  28.204  19.469  1.00  0.00    -0.394 OA
ATOM     10  H   UNL     1      29.193  28.395  18.610  1.00  0.00     0.210 HD
ENDBRANCH   8   9
ENDBRANCH   1   8
TORSDOF 3
BEGIN_RES LYS A 135
REMARK  4 active torsions:
REMARK  status: ('A' for Active; 'I' for Inactive)
REMARK    1  A    between atoms: CA   and  CB  
REMARK    2  A    between atoms: CB   and  CG  
REMARK    3  A    between atoms: CG   and  CD  
REMARK    4  A    between atoms: CD   and  CE  
ROOT
ATOM      1  CA  LYS A 135      33.193  34.663   9.290  1.00 25.02     0.186 C 
ENDROOT
BRANCH   1   2
ATOM      2  CB  LYS A 135      32.060  35.360  10.034  1.00 26.63     0.034 C 
BRANCH   2   3
ATOM      3  CG  LYS A 135      30.739  34.642   9.929  1.00 29.45     0.005 C 
BRANCH   3   4
ATOM      4  CD  LYS A 135      30.348  34.448   8.473  1.00 32.00     0.041 C 
BRANCH   4   5
ATOM      5  CE  LYS A 135      28.844  34.554   8.307  1.00 34.25     0.338 C 
ATOM      6  NZ  LYS A 135      28.132  33.820   9.389  1.00 35.99     0.618 N 
ENDBRANCH   4   5
ENDBRANCH   3   4
ENDBRANCH   2   3
ENDBRANCH   1   2
END_RES LYS A 135
BEGIN_RES TYR A 136
REMARK  2 active torsions:
REMARK  status: ('A' for Active; 'I' for Inactive)
REMARK    5  A    between atoms: CA   and  CB  
REMARK    6  A    between atoms: CB   and  CG  
ROOT
ATOM      7  CA  TYR A 136      36.583  36.399   8.994  1.00 26.14     0.191 C 
ENDROOT
BRANCH   7   8
ATOM      8  CB  TYR A 136      37.367  36.835  10.240  1.00 28.16     0.060 C 
BRANCH   8   9
ATOM      9  CG  TYR A 136      37.210  38.305  10.539  1.00 31.88    -0.020 A 
ATOM     10  CD2 TYR A 136      38.057  39.255   9.965  1.00 32.67    -0.002 A 
ATOM     11  CE2 TYR A 136      37.903  40.619  10.251  1.00 33.89     0.027 A 
ATOM     12  CZ  TYR A 136      36.893  41.036  11.120  1.00 34.34     0.131 A 
ATOM     13  OH  TYR A 136      36.718  42.381  11.412  1.00 35.14    -0.190 OA
ATOM     14  CE1 TYR A 136      36.043  40.106  11.701  1.00 35.01     0.027 A 
ATOM     15  CD1 TYR A 136      36.209  38.750  11.414  1.00 33.57    -0.002 A 
ENDBRANCH   8   9
ENDBRANCH   7   8
END_RES TYR A 136
BEGIN_RES ASN A 133
REMARK  2 active torsions:
REMARK  status: ('A' for Active; 'I' for Inactive)
REMARK    7  A    between atoms: CA   and  CB  
REMARK    8  A    between atoms: CB   and  CG  
ROOT
ATOM     16  CA  ASN A 133      31.225  30.257  11.749  1.00 18.15     0.196 C 
ENDROOT
BRANCH  16  17
ATOM     17  CB  ASN A 133      30.092  31.240  11.460  1.00 18.27     0.126 C 
BRANCH  17  18
ATOM     18  CG  ASN A 133      28.756  30.578  11.318  1.00 18.94     0.276 C 
ATOM     19  OD1 ASN A 133      28.599  29.612  10.569  1.00 18.09    -0.269 OA
ATOM     20  ND2 ASN A 133      27.768  31.099  12.044  1.00 18.93    -0.107 N 
ENDBRANCH  17  18
ENDBRANCH  16  17
END_RES ASN A 133
