REMARK VINA RESULT:    -4.737      3.305      5.717
REMARK INTER + INTRA:          -9.806
REMARK INTER:                  -6.254
REMARK INTRA:                  -3.552
REMARK UNBOUND:                -3.546
REMARK SMILES Cc1cn(CC(O)CCc2ccccc2)nn1
REMARK SMILES IDX 8 1 6 2 5 3 4 4 1 5 2 6 3 7 17 8 16 9 7 10 9 12 10 13 11 14
REMARK SMILES IDX 15 15 12 16 14 17 13 18
REMARK H PARENT 7 11
REMARK Flexibility Score: inf
ROOT
ATOM      1  C   UNL     1      33.963  35.722  13.439  1.00  0.00     0.038 C 
ENDROOT
BRANCH   1   2
ATOM      2  C   UNL     1      32.619  35.177  13.863  1.00  0.00     0.136 C 
BRANCH   2   3
ATOM      3  C   UNL     1      31.672  35.135  12.683  1.00  0.00     0.177 C 
BRANCH   3   4
ATOM      4  N   UNL     1      30.368  34.671  13.098  1.00  0.00    -0.250 N 
ATOM      5  C   UNL     1      26.707  34.742  13.042  1.00  0.00     0.070 C 
ATOM      6  C   UNL     1      28.175  34.518  13.238  1.00  0.00     0.080 A 
ATOM      7  C   UNL     1      29.206  35.191  12.638  1.00  0.00     0.134 A 
ATOM      8  N   UNL     1      28.727  33.607  14.047  1.00  0.00    -0.136 NA
ATOM      9  N   UNL     1      30.037  33.721  13.942  1.00  0.00    -0.067 NA
ENDBRANCH   3   4
ENDBRANCH   2   3
BRANCH   2  10
ATOM     10  O   UNL     1      32.778  33.953  14.463  1.00  0.00    -0.391 OA
ATOM     11  H   UNL     1      33.627  33.849  14.961  1.00  0.00     0.211 HD
ENDBRANCH   2  10
ENDBRANCH   1   2
BRANCH   1  12
ATOM     12  C   UNL     1      35.016  35.584  14.500  1.00  0.00     0.038 C 
BRANCH  12  13
ATOM     13  C   UNL     1      36.153  34.837  13.917  1.00  0.00    -0.048 A 
ATOM     14  C   UNL     1      35.963  34.141  12.734  1.00  0.00     0.004 A 
ATOM     15  C   UNL     1      37.403  34.795  14.492  1.00  0.00     0.004 A 
ATOM     16  C   UNL     1      37.008  33.437  12.170  1.00  0.00     0.000 A 
ATOM     17  C   UNL     1      38.443  34.087  13.920  1.00  0.00     0.000 A 
ATOM     18  C   UNL     1      38.263  33.392  12.743  1.00  0.00     0.000 A 
ENDBRANCH  12  13
ENDBRANCH   1  12
TORSDOF 6
BEGIN_RES LYS A 135
REMARK  4 active torsions:
REMARK  status: ('A' for Active; 'I' for Inactive)
REMARK    1  A    between atoms: CA   and  CB  
REMARK    2  A    between atoms: CB   and  CG  
REMARK    3  A    between atoms: CG   and  CD  
REMARK    4  A    between atoms: CD   and  CE  
ROOT
ATOM      1  CA  LYS A 135      33.193  34.663   9.290  1.00 25.02     0.186 C 
ENDROOT
BRANCH   1   2
ATOM      2  CB  LYS A 135      32.060  35.360  10.034  1.00 26.63     0.034 C 
BRANCH   2   3
ATOM      3  CG  LYS A 135      30.801  35.501   9.219  1.00 29.45     0.005 C 
BRANCH   3   4
ATOM      4  CD  LYS A 135      30.126  34.150   9.036  1.00 32.00     0.041 C 
BRANCH   4   5
ATOM      5  CE  LYS A 135      28.675  34.329   8.631  1.00 34.25     0.338 C 
ATOM      6  NZ  LYS A 135      27.759  33.736   9.644  1.00 35.99     0.618 N 
ENDBRANCH   4   5
ENDBRANCH   3   4
ENDBRANCH   2   3
ENDBRANCH   1   2
END_RES LYS A 135
BEGIN_RES TYR A 136
REMARK  2 active torsions:
REMARK  status: ('A' for Active; 'I' for Inactive)
REMARK    5  A    between atoms: CA   and  CB  
REMARK    6  A    between atoms: CB   and  CG  
ROOT
ATOM      7  CA  TYR A 136      36.583  36.399   8.994  1.00 26.14     0.191 C 
ENDROOT
BRANCH   7   8
ATOM      8  CB  TYR A 136      37.367  36.835  10.240  1.00 28.16     0.060 C 
BRANCH   8   9
ATOM      9  CG  TYR A 136      36.703  37.973  10.975  1.00 31.88    -0.020 A 
ATOM     10  CD2 TYR A 136      35.999  38.965  10.287  1.00 32.67    -0.002 A 
ATOM     11  CE2 TYR A 136      35.387  40.019  10.979  1.00 33.89     0.027 A 
ATOM     12  CZ  TYR A 136      35.480  40.082  12.371  1.00 34.34     0.131 A 
ATOM     13  OH  TYR A 136      34.876  41.113  13.077  1.00 35.14    -0.190 OA
ATOM     14  CE1 TYR A 136      36.177  39.107  13.070  1.00 35.01     0.027 A 
ATOM     15  CD1 TYR A 136      36.787  38.065  12.370  1.00 33.57    -0.002 A 
ENDBRANCH   8   9
ENDBRANCH   7   8
END_RES TYR A 136
BEGIN_RES ASN A 133
REMARK  2 active torsions:
REMARK  status: ('A' for Active; 'I' for Inactive)
REMARK    7  A    between atoms: CA   and  CB  
REMARK    8  A    between atoms: CB   and  CG  
ROOT
ATOM     16  CA  ASN A 133      31.225  30.257  11.749  1.00 18.15     0.196 C 
ENDROOT
BRANCH  16  17
ATOM     17  CB  ASN A 133      30.092  31.240  11.460  1.00 18.27     0.126 C 
BRANCH  17  18
ATOM     18  CG  ASN A 133      28.760  30.576  11.297  1.00 18.94     0.276 C 
ATOM     19  OD1 ASN A 133      28.619  29.603  10.554  1.00 18.09    -0.269 OA
ATOM     20  ND2 ASN A 133      27.756  31.103  11.996  1.00 18.93    -0.107 N 
ENDBRANCH  17  18
ENDBRANCH  16  17
END_RES ASN A 133
