REMARK VINA RESULT:    -5.132      0.000      0.000
REMARK INTER + INTRA:          -9.021
REMARK INTER:                  -5.836
REMARK INTRA:                  -3.185
REMARK UNBOUND:                -3.139
REMARK SMILES Cc1cn(-c2cccc(S(N)(=O)=O)c2)nn1
REMARK SMILES IDX 5 1 14 2 9 3 8 4 7 5 6 6 4 7 1 8 2 9 3 10 16 11 15 12 10 13
REMARK SMILES IDX 12 14 13 15 11 16
REMARK H PARENT 11 17 11 18
REMARK Flexibility Score: inf
ROOT
ATOM      1  C   UNL     1      34.574  35.165  14.266  1.00  0.00     0.068 A 
ATOM      2  C   UNL     1      35.483  34.482  13.479  1.00  0.00     0.050 A 
ATOM      3  C   UNL     1      36.839  34.718  13.556  1.00  0.00     0.084 A 
ATOM      4  C   UNL     1      37.342  35.661  14.439  1.00  0.00     0.022 A 
ATOM      5  C   UNL     1      36.454  36.356  15.235  1.00  0.00     0.004 A 
ATOM      6  C   UNL     1      35.095  36.098  15.136  1.00  0.00     0.028 A 
ENDROOT
BRANCH   1   7
ATOM      7  N   UNL     1      33.178  34.900  14.165  1.00  0.00    -0.220 N 
ATOM      8  C   UNL     1      29.838  35.112  12.632  1.00  0.00     0.070 C 
ATOM      9  C   UNL     1      31.063  34.869  13.446  1.00  0.00     0.080 A 
ATOM     10  C   UNL     1      32.341  35.334  13.200  1.00  0.00     0.140 A 
ATOM     11  N   UNL     1      31.161  34.152  14.576  1.00  0.00    -0.135 NA
ATOM     12  N   UNL     1      32.418  34.186  14.978  1.00  0.00    -0.062 NA
ENDBRANCH   1   7
BRANCH   3  13
ATOM     13  S   UNL     1      37.896  33.797  12.514  1.00  0.00     0.238 S 
ATOM     14  O   UNL     1      38.006  32.370  12.965  1.00  0.00    -0.207 OA
ATOM     15  O   UNL     1      39.254  34.434  12.548  1.00  0.00    -0.207 OA
BRANCH  13  16
ATOM     16  N   UNL     1      37.311  33.867  10.898  1.00  0.00    -0.225 NA
ATOM     17  H   UNL     1      36.314  34.204  10.850  1.00  0.00     0.137 HD
ATOM     18  H   UNL     1      37.349  32.903  10.492  1.00  0.00     0.137 HD
ENDBRANCH  13  16
ENDBRANCH   3  13
TORSDOF 3
BEGIN_RES LYS A 135
REMARK  4 active torsions:
REMARK  status: ('A' for Active; 'I' for Inactive)
REMARK    1  A    between atoms: CA   and  CB  
REMARK    2  A    between atoms: CB   and  CG  
REMARK    3  A    between atoms: CG   and  CD  
REMARK    4  A    between atoms: CD   and  CE  
ROOT
ATOM      1  CA  LYS A 135      33.193  34.663   9.290  1.00 25.02     0.186 C 
ENDROOT
BRANCH   1   2
ATOM      2  CB  LYS A 135      32.060  35.360  10.034  1.00 26.63     0.034 C 
BRANCH   2   3
ATOM      3  CG  LYS A 135      30.817  35.545   9.202  1.00 29.45     0.005 C 
BRANCH   3   4
ATOM      4  CD  LYS A 135      30.175  34.202   8.890  1.00 32.00     0.041 C 
BRANCH   4   5
ATOM      5  CE  LYS A 135      28.698  34.374   8.592  1.00 34.25     0.338 C 
ATOM      6  NZ  LYS A 135      27.860  33.713   9.630  1.00 35.99     0.618 N 
ENDBRANCH   4   5
ENDBRANCH   3   4
ENDBRANCH   2   3
ENDBRANCH   1   2
END_RES LYS A 135
BEGIN_RES TYR A 136
REMARK  2 active torsions:
REMARK  status: ('A' for Active; 'I' for Inactive)
REMARK    5  A    between atoms: CA   and  CB  
REMARK    6  A    between atoms: CB   and  CG  
ROOT
ATOM      7  CA  TYR A 136      36.583  36.399   8.994  1.00 26.14     0.191 C 
ENDROOT
BRANCH   7   8
ATOM      8  CB  TYR A 136      37.367  36.835  10.240  1.00 28.16     0.060 C 
BRANCH   8   9
ATOM      9  CG  TYR A 136      36.802  38.082  10.874  1.00 31.88    -0.020 A 
ATOM     10  CD2 TYR A 136      37.175  39.352  10.430  1.00 32.67    -0.002 A 
ATOM     11  CE2 TYR A 136      36.645  40.504  11.027  1.00 33.89     0.027 A 
ATOM     12  CZ  TYR A 136      35.734  40.384  12.079  1.00 34.34     0.131 A 
ATOM     13  OH  TYR A 136      35.191  41.511  12.680  1.00 35.14    -0.190 OA
ATOM     14  CE1 TYR A 136      35.353  39.130  12.534  1.00 35.01     0.027 A 
ATOM     15  CD1 TYR A 136      35.892  37.990  11.936  1.00 33.57    -0.002 A 
ENDBRANCH   8   9
ENDBRANCH   7   8
END_RES TYR A 136
BEGIN_RES ASN A 133
REMARK  2 active torsions:
REMARK  status: ('A' for Active; 'I' for Inactive)
REMARK    7  A    between atoms: CA   and  CB  
REMARK    8  A    between atoms: CB   and  CG  
ROOT
ATOM     16  CA  ASN A 133      31.225  30.257  11.749  1.00 18.15     0.196 C 
ENDROOT
BRANCH  16  17
ATOM     17  CB  ASN A 133      30.092  31.240  11.460  1.00 18.27     0.126 C 
BRANCH  17  18
ATOM     18  CG  ASN A 133      28.751  30.583  11.355  1.00 18.94     0.276 C 
ATOM     19  OD1 ASN A 133      28.578  29.597  10.635  1.00 18.09    -0.269 OA
ATOM     20  ND2 ASN A 133      27.775  31.130  12.078  1.00 18.93    -0.107 N 
ENDBRANCH  17  18
ENDBRANCH  16  17
END_RES ASN A 133
