REMARK VINA RESULT:    -4.261      1.219      2.211
REMARK INTER + INTRA:          -8.191
REMARK INTER:                  -4.864
REMARK INTRA:                  -3.327
REMARK UNBOUND:                -3.432
REMARK SMILES Cc1cn(-c2ccccc2C(C)C)nn1
REMARK SMILES IDX 5 1 10 2 9 3 8 4 7 5 6 6 4 7 1 8 2 9 3 10 15 11 14 12 11 13
REMARK SMILES IDX 12 14 13 15
REMARK H PARENT
REMARK Flexibility Score: inf
ROOT
ATOM      1  C   UNL     1      38.995  35.486  14.436  1.00  0.00     0.070 A 
ATOM      2  C   UNL     1      38.520  34.891  13.290  1.00  0.00    -0.020 A 
ATOM      3  C   UNL     1      38.971  35.326  12.049  1.00  0.00     0.006 A 
ATOM      4  C   UNL     1      39.883  36.341  11.899  1.00  0.00     0.000 A 
ATOM      5  C   UNL     1      40.362  36.941  13.048  1.00  0.00     0.002 A 
ATOM      6  C   UNL     1      39.922  36.516  14.276  1.00  0.00     0.029 A 
ENDROOT
BRANCH   1   7
ATOM      7  N   UNL     1      38.576  35.082  15.746  1.00  0.00    -0.220 N 
ATOM      8  C   UNL     1      38.571  33.082  18.819  1.00  0.00     0.070 C 
ATOM      9  C   UNL     1      38.354  34.032  17.712  1.00  0.00     0.080 A 
ATOM     10  C   UNL     1      39.059  34.085  16.506  1.00  0.00     0.140 A 
ATOM     11  N   UNL     1      37.447  35.041  17.611  1.00  0.00    -0.135 NA
ATOM     12  N   UNL     1      37.604  35.633  16.453  1.00  0.00    -0.062 NA
ENDBRANCH   1   7
BRANCH   2  13
ATOM     13  C   UNL     1      37.530  33.795  13.415  1.00  0.00     0.015 C 
ATOM     14  C   UNL     1      38.009  32.575  12.634  1.00  0.00     0.012 C 
ATOM     15  C   UNL     1      36.188  34.221  12.814  1.00  0.00     0.012 C 
ENDBRANCH   2  13
TORSDOF 2
BEGIN_RES LYS A 135
REMARK  4 active torsions:
REMARK  status: ('A' for Active; 'I' for Inactive)
REMARK    1  A    between atoms: CA   and  CB  
REMARK    2  A    between atoms: CB   and  CG  
REMARK    3  A    between atoms: CG   and  CD  
REMARK    4  A    between atoms: CD   and  CE  
ROOT
ATOM      1  CA  LYS A 135      33.193  34.663   9.290  1.00 25.02     0.186 C 
ENDROOT
BRANCH   1   2
ATOM      2  CB  LYS A 135      32.060  35.360  10.034  1.00 26.63     0.034 C 
BRANCH   2   3
ATOM      3  CG  LYS A 135      30.844  35.612   9.180  1.00 29.45     0.005 C 
BRANCH   3   4
ATOM      4  CD  LYS A 135      30.231  34.299   8.719  1.00 32.00     0.041 C 
BRANCH   4   5
ATOM      5  CE  LYS A 135      28.743  34.462   8.477  1.00 34.25     0.338 C 
ATOM      6  NZ  LYS A 135      27.949  33.745   9.513  1.00 35.99     0.618 N 
ENDBRANCH   4   5
ENDBRANCH   3   4
ENDBRANCH   2   3
ENDBRANCH   1   2
END_RES LYS A 135
BEGIN_RES TYR A 136
REMARK  2 active torsions:
REMARK  status: ('A' for Active; 'I' for Inactive)
REMARK    5  A    between atoms: CA   and  CB  
REMARK    6  A    between atoms: CB   and  CG  
ROOT
ATOM      7  CA  TYR A 136      36.583  36.399   8.994  1.00 26.14     0.191 C 
ENDROOT
BRANCH   7   8
ATOM      8  CB  TYR A 136      37.367  36.835  10.240  1.00 28.16     0.060 C 
BRANCH   8   9
ATOM      9  CG  TYR A 136      36.754  38.033  10.922  1.00 31.88    -0.020 A 
ATOM     10  CD2 TYR A 136      36.374  39.164  10.194  1.00 32.67    -0.002 A 
ATOM     11  CE2 TYR A 136      35.807  40.272  10.837  1.00 33.89     0.027 A 
ATOM     12  CZ  TYR A 136      35.618  40.250  12.221  1.00 34.34     0.131 A 
ATOM     13  OH  TYR A 136      35.051  41.333  12.878  1.00 35.14    -0.190 OA
ATOM     14  CE1 TYR A 136      35.990  39.136  12.959  1.00 35.01     0.027 A 
ATOM     15  CD1 TYR A 136      36.559  38.040  12.309  1.00 33.57    -0.002 A 
ENDBRANCH   8   9
ENDBRANCH   7   8
END_RES TYR A 136
BEGIN_RES ASN A 133
REMARK  2 active torsions:
REMARK  status: ('A' for Active; 'I' for Inactive)
REMARK    7  A    between atoms: CA   and  CB  
REMARK    8  A    between atoms: CB   and  CG  
ROOT
ATOM     16  CA  ASN A 133      31.225  30.257  11.749  1.00 18.15     0.196 C 
ENDROOT
BRANCH  16  17
ATOM     17  CB  ASN A 133      30.092  31.240  11.460  1.00 18.27     0.126 C 
BRANCH  17  18
ATOM     18  CG  ASN A 133      28.751  30.582  11.351  1.00 18.94     0.276 C 
ATOM     19  OD1 ASN A 133      28.580  29.598  10.628  1.00 18.09    -0.269 OA
ATOM     20  ND2 ASN A 133      27.774  31.126  12.075  1.00 18.93    -0.107 N 
ENDBRANCH  17  18
ENDBRANCH  16  17
END_RES ASN A 133
