REMARK VINA RESULT:    -3.301      2.854      3.772
REMARK INTER + INTRA:          -7.574
REMARK INTER:                  -4.275
REMARK INTRA:                  -3.299
REMARK UNBOUND:                -3.308
REMARK SMILES C=CCCCCn1cc(C)nn1
REMARK SMILES IDX 5 1 6 2 7 3 10 4 9 5 8 6 11 7 12 8 4 9 3 10 2 11 1 12
REMARK H PARENT
REMARK Flexibility Score: inf
ROOT
ATOM      1  C   UNL     1      31.811  34.799  15.914  1.00  0.00     0.024 C 
ENDROOT
BRANCH   1   2
ATOM      2  C   UNL     1      31.719  34.739  14.424  1.00  0.00     0.146 C 
BRANCH   2   3
ATOM      3  N   UNL     1      32.878  35.245  13.754  1.00  0.00    -0.252 N 
ATOM      4  C   UNL     1      36.418  35.478  12.931  1.00  0.00     0.070 C 
ATOM      5  C   UNL     1      34.919  35.581  13.091  1.00  0.00     0.080 A 
ATOM      6  C   UNL     1      34.136  34.820  13.934  1.00  0.00     0.134 A 
ATOM      7  N   UNL     1      34.092  36.413  12.457  1.00  0.00    -0.136 NA
ATOM      8  N   UNL     1      32.876  36.201  12.864  1.00  0.00    -0.067 NA
ENDBRANCH   2   3
ENDBRANCH   1   2
BRANCH   1   9
ATOM      9  C   UNL     1      31.618  33.457  16.576  1.00  0.00     0.006 C 
BRANCH   9  10
ATOM     10  C   UNL     1      31.285  32.396  15.522  1.00  0.00     0.027 C 
BRANCH  10  11
ATOM     11  C   UNL     1      30.426  31.396  16.203  1.00  0.00    -0.035 C 
ATOM     12  C   UNL     1      30.322  31.429  17.524  1.00  0.00     0.004 C 
ENDBRANCH  10  11
ENDBRANCH   9  10
ENDBRANCH   1   9
TORSDOF 5
BEGIN_RES LYS A 135
REMARK  4 active torsions:
REMARK  status: ('A' for Active; 'I' for Inactive)
REMARK    1  A    between atoms: CA   and  CB  
REMARK    2  A    between atoms: CB   and  CG  
REMARK    3  A    between atoms: CG   and  CD  
REMARK    4  A    between atoms: CD   and  CE  
ROOT
ATOM      1  CA  LYS A 135      33.193  34.663   9.290  1.00 25.02     0.186 C 
ENDROOT
BRANCH   1   2
ATOM      2  CB  LYS A 135      32.060  35.360  10.034  1.00 26.63     0.034 C 
BRANCH   2   3
ATOM      3  CG  LYS A 135      30.830  35.579   9.191  1.00 29.45     0.005 C 
BRANCH   3   4
ATOM      4  CD  LYS A 135      30.281  34.252   8.689  1.00 32.00     0.041 C 
BRANCH   4   5
ATOM      5  CE  LYS A 135      28.778  34.190   8.884  1.00 34.25     0.338 C 
ATOM      6  NZ  LYS A 135      28.067  34.958   7.825  1.00 35.99     0.618 N 
ENDBRANCH   4   5
ENDBRANCH   3   4
ENDBRANCH   2   3
ENDBRANCH   1   2
END_RES LYS A 135
BEGIN_RES TYR A 136
REMARK  2 active torsions:
REMARK  status: ('A' for Active; 'I' for Inactive)
REMARK    5  A    between atoms: CA   and  CB  
REMARK    6  A    between atoms: CB   and  CG  
ROOT
ATOM      7  CA  TYR A 136      36.583  36.399   8.994  1.00 26.14     0.191 C 
ENDROOT
BRANCH   7   8
ATOM      8  CB  TYR A 136      37.367  36.835  10.240  1.00 28.16     0.060 C 
BRANCH   8   9
ATOM      9  CG  TYR A 136      37.160  38.292  10.575  1.00 31.88    -0.020 A 
ATOM     10  CD2 TYR A 136      37.665  38.840  11.756  1.00 32.67    -0.002 A 
ATOM     11  CE2 TYR A 136      37.466  40.194  12.059  1.00 33.89     0.027 A 
ATOM     12  CZ  TYR A 136      36.755  41.006  11.172  1.00 34.34     0.131 A 
ATOM     13  OH  TYR A 136      36.552  42.351  11.448  1.00 35.14    -0.190 OA
ATOM     14  CE1 TYR A 136      36.245  40.478   9.995  1.00 35.01     0.027 A 
ATOM     15  CD1 TYR A 136      36.445  39.126   9.707  1.00 33.57    -0.002 A 
ENDBRANCH   8   9
ENDBRANCH   7   8
END_RES TYR A 136
BEGIN_RES ASN A 133
REMARK  2 active torsions:
REMARK  status: ('A' for Active; 'I' for Inactive)
REMARK    7  A    between atoms: CA   and  CB  
REMARK    8  A    between atoms: CB   and  CG  
ROOT
ATOM     16  CA  ASN A 133      31.225  30.257  11.749  1.00 18.15     0.196 C 
ENDROOT
BRANCH  16  17
ATOM     17  CB  ASN A 133      30.092  31.240  11.460  1.00 18.27     0.126 C 
BRANCH  17  18
ATOM     18  CG  ASN A 133      28.755  30.579  11.326  1.00 18.94     0.276 C 
ATOM     19  OD1 ASN A 133      28.590  29.619  10.571  1.00 18.09    -0.269 OA
ATOM     20  ND2 ASN A 133      27.774  31.094  12.066  1.00 18.93    -0.107 N 
ENDBRANCH  17  18
ENDBRANCH  16  17
END_RES ASN A 133
