REMARK VINA RESULT:    -3.816      8.149     10.017
REMARK INTER + INTRA:          -7.919
REMARK INTER:                  -4.503
REMARK INTRA:                  -3.416
REMARK UNBOUND:                -3.545
REMARK SMILES Cc1cn(-c2ccc(O)c([N+](=O)[O-])c2)nn1
REMARK SMILES IDX 5 1 6 2 7 3 8 4 10 5 14 6 4 7 1 8 2 9 3 10 16 11 15 12 11 13
REMARK SMILES IDX 12 14 13 15 9 16
REMARK H PARENT 9 17
REMARK Flexibility Score: inf
ROOT
ATOM      1  C   UNL     1      37.962  38.527   1.099  1.00  0.00     0.073 A 
ATOM      2  C   UNL     1      36.647  38.488   1.513  1.00  0.00     0.033 A 
ATOM      3  C   UNL     1      36.322  38.006   2.764  1.00  0.00     0.056 A 
ATOM      4  C   UNL     1      37.319  37.571   3.578  1.00  0.00     0.194 A 
ATOM      5  C   UNL     1      38.645  37.595   3.198  1.00  0.00     0.312 A 
ATOM      6  C   UNL     1      38.932  38.084   1.940  1.00  0.00     0.118 A 
ENDROOT
BRANCH   1   7
ATOM      7  N   UNL     1      38.241  39.041  -0.217  1.00  0.00    -0.220 N 
ATOM      8  C   UNL     1      37.940  41.428  -2.998  1.00  0.00     0.070 C 
ATOM      9  C   UNL     1      38.224  40.335  -2.031  1.00  0.00     0.080 A 
ATOM     10  C   UNL     1      37.729  40.165  -0.754  1.00  0.00     0.140 A 
ATOM     11  N   UNL     1      39.040  39.282  -2.232  1.00  0.00    -0.135 NA
ATOM     12  N   UNL     1      39.033  38.524  -1.135  1.00  0.00    -0.062 NA
ENDBRANCH   1   7
BRANCH   5  13
ATOM     13  N   UNL     1      39.667  37.125   4.091  1.00  0.00     0.066 N 
ATOM     14  O   UNL     1      39.858  35.913   4.313  1.00  0.00    -0.258 OA
ATOM     15  O   UNL     1      40.438  38.086   4.699  1.00  0.00    -0.258 OA
ENDBRANCH   5  13
BRANCH   4  16
ATOM     16  O   UNL     1      37.014  37.087   4.827  1.00  0.00    -0.502 OA
ATOM     17  H   UNL     1      37.650  37.108   5.611  1.00  0.00     0.293 HD
ENDBRANCH   4  16
TORSDOF 3
BEGIN_RES LYS A 135
REMARK  4 active torsions:
REMARK  status: ('A' for Active; 'I' for Inactive)
REMARK    1  A    between atoms: CA   and  CB  
REMARK    2  A    between atoms: CB   and  CG  
REMARK    3  A    between atoms: CG   and  CD  
REMARK    4  A    between atoms: CD   and  CE  
ROOT
ATOM      1  CA  LYS A 135      33.193  34.663   9.290  1.00 25.02     0.186 C 
ENDROOT
BRANCH   1   2
ATOM      2  CB  LYS A 135      32.060  35.360  10.034  1.00 26.63     0.034 C 
BRANCH   2   3
ATOM      3  CG  LYS A 135      30.859  35.648   9.170  1.00 29.45     0.005 C 
BRANCH   3   4
ATOM      4  CD  LYS A 135      30.345  34.371   8.523  1.00 32.00     0.041 C 
BRANCH   4   5
ATOM      5  CE  LYS A 135      28.831  34.312   8.594  1.00 34.25     0.338 C 
ATOM      6  NZ  LYS A 135      28.366  34.117   9.995  1.00 35.99     0.618 N 
ENDBRANCH   4   5
ENDBRANCH   3   4
ENDBRANCH   2   3
ENDBRANCH   1   2
END_RES LYS A 135
BEGIN_RES TYR A 136
REMARK  2 active torsions:
REMARK  status: ('A' for Active; 'I' for Inactive)
REMARK    5  A    between atoms: CA   and  CB  
REMARK    6  A    between atoms: CB   and  CG  
ROOT
ATOM      7  CA  TYR A 136      36.583  36.399   8.994  1.00 26.14     0.191 C 
ENDROOT
BRANCH   7   8
ATOM      8  CB  TYR A 136      37.367  36.835  10.240  1.00 28.16     0.060 C 
BRANCH   8   9
ATOM      9  CG  TYR A 136      37.287  38.322  10.485  1.00 31.88    -0.020 A 
ATOM     10  CD2 TYR A 136      38.195  38.965  11.329  1.00 32.67    -0.002 A 
ATOM     11  CE2 TYR A 136      38.111  40.347  11.551  1.00 33.89     0.027 A 
ATOM     12  CZ  TYR A 136      37.109  41.091  10.923  1.00 34.34     0.131 A 
ATOM     13  OH  TYR A 136      37.011  42.461  11.123  1.00 35.14    -0.190 OA
ATOM     14  CE1 TYR A 136      36.198  40.468  10.082  1.00 35.01     0.027 A 
ATOM     15  CD1 TYR A 136      36.288  39.090   9.874  1.00 33.57    -0.002 A 
ENDBRANCH   8   9
ENDBRANCH   7   8
END_RES TYR A 136
BEGIN_RES ASN A 133
REMARK  2 active torsions:
REMARK  status: ('A' for Active; 'I' for Inactive)
REMARK    7  A    between atoms: CA   and  CB  
REMARK    8  A    between atoms: CB   and  CG  
ROOT
ATOM     16  CA  ASN A 133      31.225  30.257  11.749  1.00 18.15     0.196 C 
ENDROOT
BRANCH  16  17
ATOM     17  CB  ASN A 133      30.092  31.240  11.460  1.00 18.27     0.126 C 
BRANCH  17  18
ATOM     18  CG  ASN A 133      28.751  30.582  11.351  1.00 18.94     0.276 C 
ATOM     19  OD1 ASN A 133      28.580  29.597  10.631  1.00 18.09    -0.269 OA
ATOM     20  ND2 ASN A 133      27.774  31.128  12.074  1.00 18.93    -0.107 N 
ENDBRANCH  17  18
ENDBRANCH  16  17
END_RES ASN A 133
