REMARK VINA RESULT:    -4.773      0.000      0.000
REMARK INTER + INTRA:          -9.371
REMARK INTER:                  -5.483
REMARK INTRA:                  -3.888
REMARK UNBOUND:                -2.924
REMARK SMILES Cc1cn([C@@H](CCC(=O)O)C(=O)O)nn1
REMARK SMILES IDX 6 1 5 2 4 3 1 4 2 5 3 6 15 7 14 8 11 9 12 10 13 11 7 13 8 14
REMARK SMILES IDX 9 15 10 16
REMARK H PARENT 13 12 10 17
REMARK Flexibility Score: inf
ROOT
ATOM      1  C   UNL     1      22.909  34.276  -1.423  1.00  0.00     0.051 C 
ENDROOT
BRANCH   1   2
ATOM      2  C   UNL     1      22.472  35.690  -1.144  1.00  0.00     0.219 C 
BRANCH   2   3
ATOM      3  N   UNL     1      23.270  36.661  -1.857  1.00  0.00    -0.238 N 
ATOM      4  C   UNL     1      24.728  38.224  -4.818  1.00  0.00     0.070 C 
ATOM      5  C   UNL     1      24.274  37.793  -3.468  1.00  0.00     0.080 A 
ATOM      6  C   UNL     1      23.457  36.737  -3.205  1.00  0.00     0.135 A 
ATOM      7  N   UNL     1      24.577  38.352  -2.283  1.00  0.00    -0.136 NA
ATOM      8  N   UNL     1      23.976  37.673  -1.335  1.00  0.00    -0.066 NA
ENDBRANCH   2   3
BRANCH   2   9
ATOM      9  C   UNL     1      22.396  36.011   0.278  1.00  0.00     0.328 C 
ATOM     10  O   UNL     1      22.951  35.261   1.110  1.00  0.00    -0.250 OA
BRANCH   9  11
ATOM     11  O   UNL     1      21.730  37.120   0.757  1.00  0.00    -0.480 OA
ATOM     12  H   UNL     1      20.725  37.271   0.586  1.00  0.00     0.296 HD
ENDBRANCH   9  11
ENDBRANCH   2   9
ENDBRANCH   1   2
BRANCH   1  13
ATOM     13  C   UNL     1      21.747  33.306  -1.416  1.00  0.00     0.125 C 
BRANCH  13  14
ATOM     14  C   UNL     1      21.958  32.270  -0.372  1.00  0.00     0.303 C 
ATOM     15  O   UNL     1      22.358  31.112  -0.648  1.00  0.00    -0.252 OA
BRANCH  14  16
ATOM     16  O   UNL     1      21.716  32.545   0.967  1.00  0.00    -0.481 OA
ATOM     17  H   UNL     1      22.294  32.137   1.709  1.00  0.00     0.296 HD
ENDBRANCH  14  16
ENDBRANCH  13  14
ENDBRANCH   1  13
TORSDOF 7
BEGIN_RES LYS A 135
REMARK  4 active torsions:
REMARK  status: ('A' for Active; 'I' for Inactive)
REMARK    1  A    between atoms: CA   and  CB  
REMARK    2  A    between atoms: CB   and  CG  
REMARK    3  A    between atoms: CG   and  CD  
REMARK    4  A    between atoms: CD   and  CE  
ROOT
ATOM      1  CA  LYS A 135      33.193  34.663   9.290  1.00 25.02     0.186 C 
ENDROOT
BRANCH   1   2
ATOM      2  CB  LYS A 135      32.060  35.360  10.034  1.00 26.63     0.034 C 
BRANCH   2   3
ATOM      3  CG  LYS A 135      30.812  35.533   9.207  1.00 29.45     0.005 C 
BRANCH   3   4
ATOM      4  CD  LYS A 135      30.116  34.197   9.000  1.00 32.00     0.041 C 
BRANCH   4   5
ATOM      5  CE  LYS A 135      28.654  34.406   8.655  1.00 34.25     0.338 C 
ATOM      6  NZ  LYS A 135      27.770  33.644   9.579  1.00 35.99     0.618 N 
ENDBRANCH   4   5
ENDBRANCH   3   4
ENDBRANCH   2   3
ENDBRANCH   1   2
END_RES LYS A 135
BEGIN_RES TYR A 136
REMARK  2 active torsions:
REMARK  status: ('A' for Active; 'I' for Inactive)
REMARK    5  A    between atoms: CA   and  CB  
REMARK    6  A    between atoms: CB   and  CG  
ROOT
ATOM      7  CA  TYR A 136      36.583  36.399   8.994  1.00 26.14     0.191 C 
ENDROOT
BRANCH   7   8
ATOM      8  CB  TYR A 136      37.367  36.835  10.240  1.00 28.16     0.060 C 
BRANCH   8   9
ATOM      9  CG  TYR A 136      37.201  38.303  10.545  1.00 31.88    -0.020 A 
ATOM     10  CD2 TYR A 136      37.716  38.861  11.718  1.00 32.67    -0.002 A 
ATOM     11  CE2 TYR A 136      37.555  40.226  11.993  1.00 33.89     0.027 A 
ATOM     12  CZ  TYR A 136      36.872  41.040  11.087  1.00 34.34     0.131 A 
ATOM     13  OH  TYR A 136      36.707  42.396  11.335  1.00 35.14    -0.190 OA
ATOM     14  CE1 TYR A 136      36.354  40.503   9.917  1.00 35.01     0.027 A 
ATOM     15  CD1 TYR A 136      36.515  39.141   9.657  1.00 33.57    -0.002 A 
ENDBRANCH   8   9
ENDBRANCH   7   8
END_RES TYR A 136
BEGIN_RES ASN A 133
REMARK  2 active torsions:
REMARK  status: ('A' for Active; 'I' for Inactive)
REMARK    7  A    between atoms: CA   and  CB  
REMARK    8  A    between atoms: CB   and  CG  
ROOT
ATOM     16  CA  ASN A 133      31.225  30.257  11.749  1.00 18.15     0.196 C 
ENDROOT
BRANCH  16  17
ATOM     17  CB  ASN A 133      30.092  31.240  11.460  1.00 18.27     0.126 C 
BRANCH  17  18
ATOM     18  CG  ASN A 133      28.749  30.584  11.368  1.00 18.94     0.276 C 
ATOM     19  OD1 ASN A 133      28.559  29.620  10.624  1.00 18.09    -0.269 OA
ATOM     20  ND2 ASN A 133      27.791  31.109  12.130  1.00 18.93    -0.107 N 
ENDBRANCH  17  18
ENDBRANCH  16  17
END_RES ASN A 133
