REMARK VINA RESULT:    -4.551      2.294      4.558
REMARK INTER + INTRA:          -8.761
REMARK INTER:                  -5.230
REMARK INTRA:                  -3.531
REMARK UNBOUND:                -3.545
REMARK SMILES Cc1cn(-c2ccc(O)c([N+](=O)[O-])c2)nn1
REMARK SMILES IDX 5 1 6 2 7 3 8 4 10 5 14 6 4 7 1 8 2 9 3 10 16 11 15 12 11 13
REMARK SMILES IDX 12 14 13 15 9 16
REMARK H PARENT 9 17
REMARK Flexibility Score: inf
ROOT
ATOM      1  C   UNL     1      38.921  34.215  13.012  1.00  0.00     0.073 A 
ATOM      2  C   UNL     1      38.348  33.037  12.580  1.00  0.00     0.033 A 
ATOM      3  C   UNL     1      36.976  32.914  12.503  1.00  0.00     0.056 A 
ATOM      4  C   UNL     1      36.203  33.972  12.860  1.00  0.00     0.194 A 
ATOM      5  C   UNL     1      36.740  35.166  13.296  1.00  0.00     0.312 A 
ATOM      6  C   UNL     1      38.115  35.252  13.360  1.00  0.00     0.118 A 
ENDROOT
BRANCH   1   7
ATOM      7  N   UNL     1      40.358  34.285  13.071  1.00  0.00    -0.220 N 
ATOM      8  C   UNL     1      43.588  35.672  14.149  1.00  0.00     0.070 C 
ATOM      9  C   UNL     1      42.426  34.940  13.581  1.00  0.00     0.080 A 
ATOM     10  C   UNL     1      41.080  35.184  13.765  1.00  0.00     0.140 A 
ATOM     11  N   UNL     1      42.477  33.873  12.760  1.00  0.00    -0.135 NA
ATOM     12  N   UNL     1      41.230  33.500  12.470  1.00  0.00    -0.062 NA
ENDBRANCH   1   7
BRANCH   5  13
ATOM     13  N   UNL     1      35.884  36.259  13.663  1.00  0.00     0.066 N 
ATOM     14  O   UNL     1      35.935  36.803  14.783  1.00  0.00    -0.258 OA
ATOM     15  O   UNL     1      34.992  36.685  12.709  1.00  0.00    -0.258 OA
ENDBRANCH   5  13
BRANCH   4  16
ATOM     16  O   UNL     1      34.834  33.867  12.790  1.00  0.00    -0.502 OA
ATOM     17  H   UNL     1      34.320  33.029  13.018  1.00  0.00     0.293 HD
ENDBRANCH   4  16
TORSDOF 3
BEGIN_RES LYS A 135
REMARK  4 active torsions:
REMARK  status: ('A' for Active; 'I' for Inactive)
REMARK    1  A    between atoms: CA   and  CB  
REMARK    2  A    between atoms: CB   and  CG  
REMARK    3  A    between atoms: CG   and  CD  
REMARK    4  A    between atoms: CD   and  CE  
ROOT
ATOM      1  CA  LYS A 135      33.193  34.663   9.290  1.00 25.02     0.186 C 
ENDROOT
BRANCH   1   2
ATOM      2  CB  LYS A 135      32.060  35.360  10.034  1.00 26.63     0.034 C 
BRANCH   2   3
ATOM      3  CG  LYS A 135      30.731  34.662   9.899  1.00 29.45     0.005 C 
BRANCH   3   4
ATOM      4  CD  LYS A 135      30.331  34.547   8.437  1.00 32.00     0.041 C 
BRANCH   4   5
ATOM      5  CE  LYS A 135      28.821  34.522   8.298  1.00 34.25     0.338 C 
ATOM      6  NZ  LYS A 135      28.188  33.818   9.448  1.00 35.99     0.618 N 
ENDBRANCH   4   5
ENDBRANCH   3   4
ENDBRANCH   2   3
ENDBRANCH   1   2
END_RES LYS A 135
BEGIN_RES TYR A 136
REMARK  2 active torsions:
REMARK  status: ('A' for Active; 'I' for Inactive)
REMARK    5  A    between atoms: CA   and  CB  
REMARK    6  A    between atoms: CB   and  CG  
ROOT
ATOM      7  CA  TYR A 136      36.583  36.399   8.994  1.00 26.14     0.191 C 
ENDROOT
BRANCH   7   8
ATOM      8  CB  TYR A 136      37.367  36.835  10.240  1.00 28.16     0.060 C 
BRANCH   8   9
ATOM      9  CG  TYR A 136      37.197  38.302  10.548  1.00 31.88    -0.020 A 
ATOM     10  CD2 TYR A 136      37.682  38.852  11.737  1.00 32.67    -0.002 A 
ATOM     11  CE2 TYR A 136      37.518  40.216  12.015  1.00 33.89     0.027 A 
ATOM     12  CZ  TYR A 136      36.862  41.037  11.094  1.00 34.34     0.131 A 
ATOM     13  OH  TYR A 136      36.694  42.392  11.345  1.00 35.14    -0.190 OA
ATOM     14  CE1 TYR A 136      36.373  40.508   9.909  1.00 35.01     0.027 A 
ATOM     15  CD1 TYR A 136      36.537  39.147   9.646  1.00 33.57    -0.002 A 
ENDBRANCH   8   9
ENDBRANCH   7   8
END_RES TYR A 136
BEGIN_RES ASN A 133
REMARK  2 active torsions:
REMARK  status: ('A' for Active; 'I' for Inactive)
REMARK    7  A    between atoms: CA   and  CB  
REMARK    8  A    between atoms: CB   and  CG  
ROOT
ATOM     16  CA  ASN A 133      31.225  30.257  11.749  1.00 18.15     0.196 C 
ENDROOT
BRANCH  16  17
ATOM     17  CB  ASN A 133      30.092  31.240  11.460  1.00 18.27     0.126 C 
BRANCH  17  18
ATOM     18  CG  ASN A 133      28.750  30.583  11.359  1.00 18.94     0.276 C 
ATOM     19  OD1 ASN A 133      28.576  29.593  10.646  1.00 18.09    -0.269 OA
ATOM     20  ND2 ASN A 133      27.775  31.136  12.080  1.00 18.93    -0.107 N 
ENDBRANCH  17  18
ENDBRANCH  16  17
END_RES ASN A 133
