REMARK VINA RESULT:    -4.295      1.873      3.809
REMARK INTER + INTRA:          -9.222
REMARK INTER:                  -5.605
REMARK INTRA:                  -3.617
REMARK UNBOUND:                -3.546
REMARK SMILES Cc1cn(CC(O)CCc2ccccc2)nn1
REMARK SMILES IDX 8 1 6 2 5 3 4 4 1 5 2 6 3 7 17 8 16 9 7 10 9 12 10 13 11 14
REMARK SMILES IDX 15 15 12 16 14 17 13 18
REMARK H PARENT 7 11
REMARK Flexibility Score: inf
ROOT
ATOM      1  C   UNL     1      40.955  36.575  12.795  1.00  0.00     0.038 C 
ENDROOT
BRANCH   1   2
ATOM      2  C   UNL     1      40.344  35.265  12.354  1.00  0.00     0.136 C 
BRANCH   2   3
ATOM      3  C   UNL     1      39.648  34.591  13.517  1.00  0.00     0.177 C 
BRANCH   3   4
ATOM      4  N   UNL     1      38.269  34.312  13.187  1.00  0.00    -0.250 N 
ATOM      5  C   UNL     1      34.657  34.734  13.621  1.00  0.00     0.070 C 
ATOM      6  C   UNL     1      36.069  34.393  13.254  1.00  0.00     0.080 A 
ATOM      7  C   UNL     1      37.216  34.883  13.818  1.00  0.00     0.134 A 
ATOM      8  N   UNL     1      36.443  33.537  12.297  1.00  0.00    -0.136 NA
ATOM      9  N   UNL     1      37.762  33.509  12.279  1.00  0.00    -0.067 NA
ENDBRANCH   3   4
ENDBRANCH   2   3
BRANCH   2  10
ATOM     10  O   UNL     1      39.512  35.475  11.283  1.00  0.00    -0.391 OA
ATOM     11  H   UNL     1      39.206  36.411  11.180  1.00  0.00     0.211 HD
ENDBRANCH   2  10
ENDBRANCH   1   2
BRANCH   1  12
ATOM     12  C   UNL     1      39.990  37.456  13.534  1.00  0.00     0.038 C 
BRANCH  12  13
ATOM     13  C   UNL     1      39.934  38.757  12.831  1.00  0.00    -0.048 A 
ATOM     14  C   UNL     1      39.421  39.858  13.499  1.00  0.00     0.004 A 
ATOM     15  C   UNL     1      40.365  38.936  11.537  1.00  0.00     0.004 A 
ATOM     16  C   UNL     1      39.357  41.083  12.866  1.00  0.00     0.000 A 
ATOM     17  C   UNL     1      40.297  40.166  10.911  1.00  0.00     0.000 A 
ATOM     18  C   UNL     1      39.789  41.267  11.568  1.00  0.00     0.000 A 
ENDBRANCH  12  13
ENDBRANCH   1  12
TORSDOF 6
BEGIN_RES LYS A 135
REMARK  4 active torsions:
REMARK  status: ('A' for Active; 'I' for Inactive)
REMARK    1  A    between atoms: CA   and  CB  
REMARK    2  A    between atoms: CB   and  CG  
REMARK    3  A    between atoms: CG   and  CD  
REMARK    4  A    between atoms: CD   and  CE  
ROOT
ATOM      1  CA  LYS A 135      33.193  34.663   9.290  1.00 25.02     0.186 C 
ENDROOT
BRANCH   1   2
ATOM      2  CB  LYS A 135      32.060  35.360  10.034  1.00 26.63     0.034 C 
BRANCH   2   3
ATOM      3  CG  LYS A 135      30.712  34.726   9.809  1.00 29.45     0.005 C 
BRANCH   3   4
ATOM      4  CD  LYS A 135      30.225  34.989   8.392  1.00 32.00     0.041 C 
BRANCH   4   5
ATOM      5  CE  LYS A 135      28.775  34.570   8.241  1.00 34.25     0.338 C 
ATOM      6  NZ  LYS A 135      28.293  33.856   9.456  1.00 35.99     0.618 N 
ENDBRANCH   4   5
ENDBRANCH   3   4
ENDBRANCH   2   3
ENDBRANCH   1   2
END_RES LYS A 135
BEGIN_RES TYR A 136
REMARK  2 active torsions:
REMARK  status: ('A' for Active; 'I' for Inactive)
REMARK    5  A    between atoms: CA   and  CB  
REMARK    6  A    between atoms: CB   and  CG  
ROOT
ATOM      7  CA  TYR A 136      36.583  36.399   8.994  1.00 26.14     0.191 C 
ENDROOT
BRANCH   7   8
ATOM      8  CB  TYR A 136      37.367  36.835  10.240  1.00 28.16     0.060 C 
BRANCH   8   9
ATOM      9  CG  TYR A 136      36.827  38.105  10.850  1.00 31.88    -0.020 A 
ATOM     10  CD2 TYR A 136      36.790  39.297  10.124  1.00 32.67    -0.002 A 
ATOM     11  CE2 TYR A 136      36.288  40.472  10.701  1.00 33.89     0.027 A 
ATOM     12  CZ  TYR A 136      35.819  40.453  12.017  1.00 34.34     0.131 A 
ATOM     13  OH  TYR A 136      35.311  41.603  12.606  1.00 35.14    -0.190 OA
ATOM     14  CE1 TYR A 136      35.850  39.278  12.753  1.00 35.01     0.027 A 
ATOM     15  CD1 TYR A 136      36.358  38.116  12.170  1.00 33.57    -0.002 A 
ENDBRANCH   8   9
ENDBRANCH   7   8
END_RES TYR A 136
BEGIN_RES ASN A 133
REMARK  2 active torsions:
REMARK  status: ('A' for Active; 'I' for Inactive)
REMARK    7  A    between atoms: CA   and  CB  
REMARK    8  A    between atoms: CB   and  CG  
ROOT
ATOM     16  CA  ASN A 133      31.225  30.257  11.749  1.00 18.15     0.196 C 
ENDROOT
BRANCH  16  17
ATOM     17  CB  ASN A 133      30.092  31.240  11.460  1.00 18.27     0.126 C 
BRANCH  17  18
ATOM     18  CG  ASN A 133      28.751  30.582  11.351  1.00 18.94     0.276 C 
ATOM     19  OD1 ASN A 133      28.580  29.598  10.629  1.00 18.09    -0.269 OA
ATOM     20  ND2 ASN A 133      27.774  31.127  12.074  1.00 18.93    -0.107 N 
ENDBRANCH  17  18
ENDBRANCH  16  17
END_RES ASN A 133
