REMARK VINA RESULT:    -4.095      9.156     14.776
REMARK INTER + INTRA:          -8.974
REMARK INTER:                  -5.176
REMARK INTRA:                  -3.798
REMARK UNBOUND:                -3.562
REMARK SMILES Cc1cn(CC(O)Cn2ccnc2[N+](=O)[O-])nn1
REMARK SMILES IDX 8 1 6 2 5 3 4 4 1 5 2 6 3 7 18 8 17 9 7 10 9 12 10 13 13 14
REMARK SMILES IDX 11 15 12 16 14 17 15 18 16 19
REMARK H PARENT 7 11
REMARK Flexibility Score: inf
ROOT
ATOM      1  C   UNL     1      33.553  34.979  14.270  1.00  0.00     0.239 C 
ENDROOT
BRANCH   1   2
ATOM      2  C   UNL     1      34.486  35.027  13.087  1.00  0.00     0.170 C 
BRANCH   2   3
ATOM      3  C   UNL     1      35.602  35.992  13.423  1.00  0.00     0.181 C 
BRANCH   3   4
ATOM      4  N   UNL     1      36.775  35.315  13.943  1.00  0.00    -0.250 N 
ATOM      5  C   UNL     1      39.070  34.233  16.543  1.00  0.00     0.070 C 
ATOM      6  C   UNL     1      38.278  34.555  15.308  1.00  0.00     0.080 A 
ATOM      7  C   UNL     1      37.115  35.294  15.232  1.00  0.00     0.134 A 
ATOM      8  N   UNL     1      38.603  34.154  14.066  1.00  0.00    -0.136 NA
ATOM      9  N   UNL     1      37.678  34.628  13.265  1.00  0.00    -0.067 NA
ENDBRANCH   3   4
ENDBRANCH   2   3
BRANCH   2  10
ATOM     10  O   UNL     1      35.018  33.766  12.892  1.00  0.00    -0.388 OA
ATOM     11  H   UNL     1      35.920  33.711  13.305  1.00  0.00     0.211 HD
ENDBRANCH   2  10
ENDBRANCH   1   2
BRANCH   1  12
ATOM     12  N   UNL     1      32.161  35.157  13.922  1.00  0.00    -0.227 N 
ATOM     13  C   UNL     1      31.741  35.976  12.949  1.00  0.00     0.204 A 
ATOM     14  C   UNL     1      31.126  34.522  14.486  1.00  0.00     0.434 A 
ATOM     15  C   UNL     1      30.381  35.866  12.881  1.00  0.00     0.245 A 
ATOM     16  N   UNL     1      30.022  34.983  13.816  1.00  0.00    -0.074 NA
BRANCH  14  17
ATOM     17  N   UNL     1      31.084  33.575  15.556  1.00  0.00    -0.047 N 
ATOM     18  O   UNL     1      30.622  33.939  16.653  1.00  0.00    -0.390 OA
ATOM     19  O   UNL     1      31.521  32.290  15.456  1.00  0.00    -0.390 OA
ENDBRANCH  14  17
ENDBRANCH   1  12
TORSDOF 6
BEGIN_RES LYS A 135
REMARK  4 active torsions:
REMARK  status: ('A' for Active; 'I' for Inactive)
REMARK    1  A    between atoms: CA   and  CB  
REMARK    2  A    between atoms: CB   and  CG  
REMARK    3  A    between atoms: CG   and  CD  
REMARK    4  A    between atoms: CD   and  CE  
ROOT
ATOM      1  CA  LYS A 135      33.193  34.663   9.290  1.00 25.02     0.186 C 
ENDROOT
BRANCH   1   2
ATOM      2  CB  LYS A 135      32.060  35.360  10.034  1.00 26.63     0.034 C 
BRANCH   2   3
ATOM      3  CG  LYS A 135      30.801  35.502   9.218  1.00 29.45     0.005 C 
BRANCH   3   4
ATOM      4  CD  LYS A 135      30.108  34.158   9.062  1.00 32.00     0.041 C 
BRANCH   4   5
ATOM      5  CE  LYS A 135      28.662  34.349   8.646  1.00 34.25     0.338 C 
ATOM      6  NZ  LYS A 135      27.736  33.668   9.594  1.00 35.99     0.618 N 
ENDBRANCH   4   5
ENDBRANCH   3   4
ENDBRANCH   2   3
ENDBRANCH   1   2
END_RES LYS A 135
BEGIN_RES TYR A 136
REMARK  2 active torsions:
REMARK  status: ('A' for Active; 'I' for Inactive)
REMARK    5  A    between atoms: CA   and  CB  
REMARK    6  A    between atoms: CB   and  CG  
ROOT
ATOM      7  CA  TYR A 136      36.583  36.399   8.994  1.00 26.14     0.191 C 
ENDROOT
BRANCH   7   8
ATOM      8  CB  TYR A 136      37.367  36.835  10.240  1.00 28.16     0.060 C 
BRANCH   8   9
ATOM      9  CG  TYR A 136      37.106  38.273  10.616  1.00 31.88    -0.020 A 
ATOM     10  CD2 TYR A 136      37.581  38.804  11.817  1.00 32.67    -0.002 A 
ATOM     11  CE2 TYR A 136      37.331  40.140  12.158  1.00 33.89     0.027 A 
ATOM     12  CZ  TYR A 136      36.599  40.952  11.289  1.00 34.34     0.131 A 
ATOM     13  OH  TYR A 136      36.346  42.281  11.603  1.00 35.14    -0.190 OA
ATOM     14  CE1 TYR A 136      36.118  40.441  10.093  1.00 35.01     0.027 A 
ATOM     15  CD1 TYR A 136      36.368  39.107   9.767  1.00 33.57    -0.002 A 
ENDBRANCH   8   9
ENDBRANCH   7   8
END_RES TYR A 136
BEGIN_RES ASN A 133
REMARK  2 active torsions:
REMARK  status: ('A' for Active; 'I' for Inactive)
REMARK    7  A    between atoms: CA   and  CB  
REMARK    8  A    between atoms: CB   and  CG  
ROOT
ATOM     16  CA  ASN A 133      31.225  30.257  11.749  1.00 18.15     0.196 C 
ENDROOT
BRANCH  16  17
ATOM     17  CB  ASN A 133      30.092  31.240  11.460  1.00 18.27     0.126 C 
BRANCH  17  18
ATOM     18  CG  ASN A 133      28.749  30.584  11.365  1.00 18.94     0.276 C 
ATOM     19  OD1 ASN A 133      28.563  29.616  10.625  1.00 18.09    -0.269 OA
ATOM     20  ND2 ASN A 133      27.788  31.112  12.121  1.00 18.93    -0.107 N 
ENDBRANCH  17  18
ENDBRANCH  16  17
END_RES ASN A 133
