REMARK VINA RESULT:    -3.038      1.918      3.002
REMARK INTER + INTRA:          -7.133
REMARK INTER:                  -3.976
REMARK INTRA:                  -3.157
REMARK UNBOUND:                -3.384
REMARK SMILES COCC(C(N)=O)n1cc(C)nn1
REMARK SMILES IDX 3 1 4 2 8 3 11 4 10 5 9 6 12 7 13 8 5 9 7 10 6 11 2 14 1 15
REMARK H PARENT 6 12 6 13
REMARK Flexibility Score: inf
ROOT
ATOM      1  C   UNL     1      37.576  37.537   4.023  1.00  0.00     0.197 C 
ENDROOT
BRANCH   1   2
ATOM      2  C   UNL     1      37.385  38.444   2.813  1.00  0.00     0.223 C 
BRANCH   2   3
ATOM      3  N   UNL     1      38.647  38.976   2.354  1.00  0.00    -0.237 N 
ATOM      4  C   UNL     1      42.175  39.891   2.352  1.00  0.00     0.070 C 
ATOM      5  C   UNL     1      40.723  39.628   2.101  1.00  0.00     0.080 A 
ATOM      6  C   UNL     1      39.844  39.015   2.957  1.00  0.00     0.135 A 
ATOM      7  N   UNL     1      40.010  39.941   0.999  1.00  0.00    -0.136 NA
ATOM      8  N   UNL     1      38.776  39.551   1.155  1.00  0.00    -0.066 NA
ENDBRANCH   2   3
BRANCH   2   9
ATOM      9  C   UNL     1      36.671  37.689   1.780  1.00  0.00     0.244 C 
ATOM     10  O   UNL     1      35.419  37.778   1.710  1.00  0.00    -0.273 OA
ATOM     11  N   UNL     1      37.355  36.862   0.856  1.00  0.00    -0.368 N 
ATOM     12  H   UNL     1      38.373  36.958   0.630  1.00  0.00     0.159 HD
ATOM     13  H   UNL     1      36.868  36.082   0.329  1.00  0.00     0.159 HD
ENDBRANCH   2   9
ENDBRANCH   1   2
BRANCH   1  14
ATOM     14  O   UNL     1      36.469  37.688   4.851  1.00  0.00    -0.382 OA
ATOM     15  C   UNL     1      36.623  38.856   5.616  1.00  0.00     0.195 C 
ENDBRANCH   1  14
TORSDOF 4
BEGIN_RES LYS A 135
REMARK  4 active torsions:
REMARK  status: ('A' for Active; 'I' for Inactive)
REMARK    1  A    between atoms: CA   and  CB  
REMARK    2  A    between atoms: CB   and  CG  
REMARK    3  A    between atoms: CG   and  CD  
REMARK    4  A    between atoms: CD   and  CE  
ROOT
ATOM      1  CA  LYS A 135      33.193  34.663   9.290  1.00 25.02     0.186 C 
ENDROOT
BRANCH   1   2
ATOM      2  CB  LYS A 135      32.060  35.360  10.034  1.00 26.63     0.034 C 
BRANCH   2   3
ATOM      3  CG  LYS A 135      30.753  35.354   9.284  1.00 29.45     0.005 C 
BRANCH   3   4
ATOM      4  CD  LYS A 135      29.708  34.542  10.033  1.00 32.00     0.041 C 
BRANCH   4   5
ATOM      5  CE  LYS A 135      28.682  33.976   9.070  1.00 34.25     0.338 C 
ATOM      6  NZ  LYS A 135      27.323  33.966   9.678  1.00 35.99     0.618 N 
ENDBRANCH   4   5
ENDBRANCH   3   4
ENDBRANCH   2   3
ENDBRANCH   1   2
END_RES LYS A 135
BEGIN_RES TYR A 136
REMARK  2 active torsions:
REMARK  status: ('A' for Active; 'I' for Inactive)
REMARK    5  A    between atoms: CA   and  CB  
REMARK    6  A    between atoms: CB   and  CG  
ROOT
ATOM      7  CA  TYR A 136      36.583  36.399   8.994  1.00 26.14     0.191 C 
ENDROOT
BRANCH   7   8
ATOM      8  CB  TYR A 136      37.367  36.835  10.240  1.00 28.16     0.060 C 
BRANCH   8   9
ATOM      9  CG  TYR A 136      37.325  38.327  10.459  1.00 31.88    -0.020 A 
ATOM     10  CD2 TYR A 136      38.108  38.936  11.442  1.00 32.67    -0.002 A 
ATOM     11  CE2 TYR A 136      38.061  40.323  11.639  1.00 33.89     0.027 A 
ATOM     12  CZ  TYR A 136      37.222  41.108  10.844  1.00 34.34     0.131 A 
ATOM     13  OH  TYR A 136      37.164  42.484  11.016  1.00 35.14    -0.190 OA
ATOM     14  CE1 TYR A 136      36.436  40.520   9.864  1.00 35.01     0.027 A 
ATOM     15  CD1 TYR A 136      36.487  39.137   9.682  1.00 33.57    -0.002 A 
ENDBRANCH   8   9
ENDBRANCH   7   8
END_RES TYR A 136
BEGIN_RES ASN A 133
REMARK  2 active torsions:
REMARK  status: ('A' for Active; 'I' for Inactive)
REMARK    7  A    between atoms: CA   and  CB  
REMARK    8  A    between atoms: CB   and  CG  
ROOT
ATOM     16  CA  ASN A 133      31.225  30.257  11.749  1.00 18.15     0.196 C 
ENDROOT
BRANCH  16  17
ATOM     17  CB  ASN A 133      30.092  31.240  11.460  1.00 18.27     0.126 C 
BRANCH  17  18
ATOM     18  CG  ASN A 133      28.753  30.581  11.338  1.00 18.94     0.276 C 
ATOM     19  OD1 ASN A 133      28.594  29.586  10.628  1.00 18.09    -0.269 OA
ATOM     20  ND2 ASN A 133      27.764  31.136  12.038  1.00 18.93    -0.107 N 
ENDBRANCH  17  18
ENDBRANCH  16  17
END_RES ASN A 133
