REMARK VINA RESULT:    -3.771      2.454      3.717
REMARK INTER + INTRA:          -7.251
REMARK INTER:                  -4.244
REMARK INTRA:                  -3.008
REMARK UNBOUND:                -3.260
REMARK SMILES Cc1cn(-c2ccccc2Br)nn1
REMARK SMILES IDX 5 1 6 2 7 3 8 4 9 5 10 6 11 7 4 8 1 9 2 10 3 11 13 12 12 13
REMARK H PARENT
REMARK Flexibility Score: inf
ROOT
ATOM      1  C   UNL     1      38.306  34.260  16.503  1.00  0.00     0.081 A 
ATOM      2  C   UNL     1      38.749  33.160  17.205  1.00  0.00     0.029 A 
ATOM      3  C   UNL     1      38.590  33.111  18.574  1.00  0.00     0.002 A 
ATOM      4  C   UNL     1      37.988  34.162  19.235  1.00  0.00     0.001 A 
ATOM      5  C   UNL     1      37.553  35.250  18.515  1.00  0.00     0.018 A 
ATOM      6  C   UNL     1      37.696  35.331  17.143  1.00  0.00     0.043 A 
ATOM      7  Br  UNL     1      37.083  36.856  16.167  1.00  0.00    -0.048 Br
ENDROOT
BRANCH   1   8
ATOM      8  N   UNL     1      38.486  34.275  15.102  1.00  0.00    -0.219 N 
ATOM      9  C   UNL     1      37.289  33.508  11.751  1.00  0.00     0.070 C 
ATOM     10  C   UNL     1      38.022  33.934  12.966  1.00  0.00     0.080 A 
ATOM     11  C   UNL     1      37.562  33.774  14.236  1.00  0.00     0.140 A 
ATOM     12  N   UNL     1      39.219  34.527  13.064  1.00  0.00    -0.135 NA
ATOM     13  N   UNL     1      39.472  34.720  14.360  1.00  0.00    -0.062 NA
ENDBRANCH   1   8
TORSDOF 1
BEGIN_RES LYS A 135
REMARK  4 active torsions:
REMARK  status: ('A' for Active; 'I' for Inactive)
REMARK    1  A    between atoms: CA   and  CB  
REMARK    2  A    between atoms: CB   and  CG  
REMARK    3  A    between atoms: CG   and  CD  
REMARK    4  A    between atoms: CD   and  CE  
ROOT
ATOM      1  CA  LYS A 135      33.193  34.663   9.290  1.00 25.02     0.186 C 
ENDROOT
BRANCH   1   2
ATOM      2  CB  LYS A 135      32.060  35.360  10.034  1.00 26.63     0.034 C 
BRANCH   2   3
ATOM      3  CG  LYS A 135      30.832  35.583   9.189  1.00 29.45     0.005 C 
BRANCH   3   4
ATOM      4  CD  LYS A 135      30.292  34.260   8.668  1.00 32.00     0.041 C 
BRANCH   4   5
ATOM      5  CE  LYS A 135      28.887  34.018   9.186  1.00 34.25     0.338 C 
ATOM      6  NZ  LYS A 135      27.871  34.639   8.291  1.00 35.99     0.618 N 
ENDBRANCH   4   5
ENDBRANCH   3   4
ENDBRANCH   2   3
ENDBRANCH   1   2
END_RES LYS A 135
BEGIN_RES TYR A 136
REMARK  2 active torsions:
REMARK  status: ('A' for Active; 'I' for Inactive)
REMARK    5  A    between atoms: CA   and  CB  
REMARK    6  A    between atoms: CB   and  CG  
ROOT
ATOM      7  CA  TYR A 136      36.583  36.399   8.994  1.00 26.14     0.191 C 
ENDROOT
BRANCH   7   8
ATOM      8  CB  TYR A 136      37.367  36.835  10.240  1.00 28.16     0.060 C 
BRANCH   8   9
ATOM      9  CG  TYR A 136      36.673  37.933  11.008  1.00 31.88    -0.020 A 
ATOM     10  CD2 TYR A 136      36.267  39.111  10.377  1.00 32.67    -0.002 A 
ATOM     11  CE2 TYR A 136      35.624  40.126  11.100  1.00 33.89     0.027 A 
ATOM     12  CZ  TYR A 136      35.386  39.960  12.466  1.00 34.34     0.131 A 
ATOM     13  OH  TYR A 136      34.744  40.948  13.200  1.00 35.14    -0.190 OA
ATOM     14  CE1 TYR A 136      35.783  38.796  13.109  1.00 35.01     0.027 A 
ATOM     15  CD1 TYR A 136      36.428  37.795  12.380  1.00 33.57    -0.002 A 
ENDBRANCH   8   9
ENDBRANCH   7   8
END_RES TYR A 136
BEGIN_RES ASN A 133
REMARK  2 active torsions:
REMARK  status: ('A' for Active; 'I' for Inactive)
REMARK    7  A    between atoms: CA   and  CB  
REMARK    8  A    between atoms: CB   and  CG  
ROOT
ATOM     16  CA  ASN A 133      31.225  30.257  11.749  1.00 18.15     0.196 C 
ENDROOT
BRANCH  16  17
ATOM     17  CB  ASN A 133      30.092  31.240  11.460  1.00 18.27     0.126 C 
BRANCH  17  18
ATOM     18  CG  ASN A 133      28.757  30.578  11.313  1.00 18.94     0.276 C 
ATOM     19  OD1 ASN A 133      28.604  29.609  10.567  1.00 18.09    -0.269 OA
ATOM     20  ND2 ASN A 133      27.765  31.101  12.033  1.00 18.93    -0.107 N 
ENDBRANCH  17  18
ENDBRANCH  16  17
END_RES ASN A 133
