REMARK VINA RESULT:    -3.578      7.698     13.014
REMARK INTER + INTRA:          -6.958
REMARK INTER:                  -3.782
REMARK INTRA:                  -3.176
REMARK UNBOUND:                -3.171
REMARK SMILES Cc1cn(C2CCCC2)nn1
REMARK SMILES IDX 5 1 6 2 7 3 8 4 9 5 4 6 1 7 2 8 3 9 11 10 10 11
REMARK H PARENT
REMARK Flexibility Score: inf
ROOT
ATOM      1  C   UNL     1      22.320  34.464  -0.475  1.00  0.00     0.109 C 
ATOM      2  C   UNL     1      23.129  33.829   0.655  1.00  0.00     0.027 C 
ATOM      3  C   UNL     1      22.484  32.456   0.724  1.00  0.00     0.002 C 
ATOM      4  C   UNL     1      21.998  32.149  -0.678  1.00  0.00     0.002 C 
ATOM      5  C   UNL     1      22.343  33.389  -1.511  1.00  0.00     0.027 C 
ENDROOT
BRANCH   1   6
ATOM      6  N   UNL     1      22.943  35.701  -0.927  1.00  0.00    -0.249 N 
ATOM      7  C   UNL     1      25.189  37.641  -3.101  1.00  0.00     0.070 C 
ATOM      8  C   UNL     1      24.213  37.091  -2.093  1.00  0.00     0.080 A 
ATOM      9  C   UNL     1      23.829  35.780  -1.933  1.00  0.00     0.134 A 
ATOM     10  N   UNL     1      23.527  37.760  -1.154  1.00  0.00    -0.136 NA
ATOM     11  N   UNL     1      22.779  36.922  -0.471  1.00  0.00    -0.067 NA
ENDBRANCH   1   6
TORSDOF 1
BEGIN_RES LYS A 135
REMARK  4 active torsions:
REMARK  status: ('A' for Active; 'I' for Inactive)
REMARK    1  A    between atoms: CA   and  CB  
REMARK    2  A    between atoms: CB   and  CG  
REMARK    3  A    between atoms: CG   and  CD  
REMARK    4  A    between atoms: CD   and  CE  
ROOT
ATOM      1  CA  LYS A 135      33.193  34.663   9.290  1.00 25.02     0.186 C 
ENDROOT
BRANCH   1   2
ATOM      2  CB  LYS A 135      32.060  35.360  10.034  1.00 26.63     0.034 C 
BRANCH   2   3
ATOM      3  CG  LYS A 135      30.732  34.659   9.903  1.00 29.45     0.005 C 
BRANCH   3   4
ATOM      4  CD  LYS A 135      30.359  34.487   8.439  1.00 32.00     0.041 C 
BRANCH   4   5
ATOM      5  CE  LYS A 135      28.856  34.585   8.257  1.00 34.25     0.338 C 
ATOM      6  NZ  LYS A 135      28.136  33.876   9.351  1.00 35.99     0.618 N 
ENDBRANCH   4   5
ENDBRANCH   3   4
ENDBRANCH   2   3
ENDBRANCH   1   2
END_RES LYS A 135
BEGIN_RES TYR A 136
REMARK  2 active torsions:
REMARK  status: ('A' for Active; 'I' for Inactive)
REMARK    5  A    between atoms: CA   and  CB  
REMARK    6  A    between atoms: CB   and  CG  
ROOT
ATOM      7  CA  TYR A 136      36.583  36.399   8.994  1.00 26.14     0.191 C 
ENDROOT
BRANCH   7   8
ATOM      8  CB  TYR A 136      37.367  36.835  10.240  1.00 28.16     0.060 C 
BRANCH   8   9
ATOM      9  CG  TYR A 136      37.206  38.305  10.542  1.00 31.88    -0.020 A 
ATOM     10  CD2 TYR A 136      37.765  38.873  11.689  1.00 32.67    -0.002 A 
ATOM     11  CE2 TYR A 136      37.608  40.239  11.961  1.00 33.89     0.027 A 
ATOM     12  CZ  TYR A 136      36.885  41.044  11.077  1.00 34.34     0.131 A 
ATOM     13  OH  TYR A 136      36.723  42.400  11.323  1.00 35.14    -0.190 OA
ATOM     14  CE1 TYR A 136      36.323  40.496   9.933  1.00 35.01     0.027 A 
ATOM     15  CD1 TYR A 136      36.480  39.133   9.676  1.00 33.57    -0.002 A 
ENDBRANCH   8   9
ENDBRANCH   7   8
END_RES TYR A 136
BEGIN_RES ASN A 133
REMARK  2 active torsions:
REMARK  status: ('A' for Active; 'I' for Inactive)
REMARK    7  A    between atoms: CA   and  CB  
REMARK    8  A    between atoms: CB   and  CG  
ROOT
ATOM     16  CA  ASN A 133      31.225  30.257  11.749  1.00 18.15     0.196 C 
ENDROOT
BRANCH  16  17
ATOM     17  CB  ASN A 133      30.092  31.240  11.460  1.00 18.27     0.126 C 
BRANCH  17  18
ATOM     18  CG  ASN A 133      28.757  30.578  11.312  1.00 18.94     0.276 C 
ATOM     19  OD1 ASN A 133      28.606  29.606  10.570  1.00 18.09    -0.269 OA
ATOM     20  ND2 ASN A 133      27.763  31.105  12.026  1.00 18.93    -0.107 N 
ENDBRANCH  17  18
ENDBRANCH  16  17
END_RES ASN A 133
