REMARK VINA RESULT:    -3.288      9.409     14.357
REMARK INTER + INTRA:          -6.740
REMARK INTER:                  -3.640
REMARK INTRA:                  -3.100
REMARK UNBOUND:                -3.260
REMARK SMILES Cc1cn(-c2ccccc2Br)nn1
REMARK SMILES IDX 5 1 6 2 7 3 8 4 9 5 10 6 11 7 4 8 1 9 2 10 3 11 13 12 12 13
REMARK H PARENT
REMARK Flexibility Score: inf
ROOT
ATOM      1  C   UNL     1      22.269  33.739  -1.529  1.00  0.00     0.081 A 
ATOM      2  C   UNL     1      22.016  32.432  -1.170  1.00  0.00     0.029 A 
ATOM      3  C   UNL     1      22.314  32.002   0.107  1.00  0.00     0.002 A 
ATOM      4  C   UNL     1      22.861  32.881   1.018  1.00  0.00     0.001 A 
ATOM      5  C   UNL     1      23.105  34.180   0.639  1.00  0.00     0.018 A 
ATOM      6  C   UNL     1      22.820  34.644  -0.631  1.00  0.00     0.043 A 
ATOM      7  Br  UNL     1      23.169  36.455  -1.131  1.00  0.00    -0.048 Br
ENDROOT
BRANCH   1   8
ATOM      8  N   UNL     1      21.952  34.142  -2.845  1.00  0.00    -0.219 N 
ATOM      9  C   UNL     1      22.779  34.313  -6.386  1.00  0.00     0.070 C 
ATOM     10  C   UNL     1      22.188  34.397  -5.029  1.00  0.00     0.080 A 
ATOM     11  C   UNL     1      22.764  33.887  -3.909  1.00  0.00     0.140 A 
ATOM     12  N   UNL     1      21.035  34.960  -4.646  1.00  0.00    -0.135 NA
ATOM     13  N   UNL     1      20.920  34.792  -3.327  1.00  0.00    -0.062 NA
ENDBRANCH   1   8
TORSDOF 1
BEGIN_RES LYS A 135
REMARK  4 active torsions:
REMARK  status: ('A' for Active; 'I' for Inactive)
REMARK    1  A    between atoms: CA   and  CB  
REMARK    2  A    between atoms: CB   and  CG  
REMARK    3  A    between atoms: CG   and  CD  
REMARK    4  A    between atoms: CD   and  CE  
ROOT
ATOM      1  CA  LYS A 135      33.193  34.663   9.290  1.00 25.02     0.186 C 
ENDROOT
BRANCH   1   2
ATOM      2  CB  LYS A 135      32.060  35.360  10.034  1.00 26.63     0.034 C 
BRANCH   2   3
ATOM      3  CG  LYS A 135      30.715  34.713   9.826  1.00 29.45     0.005 C 
BRANCH   3   4
ATOM      4  CD  LYS A 135      30.318  34.761   8.359  1.00 32.00     0.041 C 
BRANCH   4   5
ATOM      5  CE  LYS A 135      28.828  34.520   8.202  1.00 34.25     0.338 C 
ATOM      6  NZ  LYS A 135      28.261  33.864   9.412  1.00 35.99     0.618 N 
ENDBRANCH   4   5
ENDBRANCH   3   4
ENDBRANCH   2   3
ENDBRANCH   1   2
END_RES LYS A 135
BEGIN_RES TYR A 136
REMARK  2 active torsions:
REMARK  status: ('A' for Active; 'I' for Inactive)
REMARK    5  A    between atoms: CA   and  CB  
REMARK    6  A    between atoms: CB   and  CG  
ROOT
ATOM      7  CA  TYR A 136      36.583  36.399   8.994  1.00 26.14     0.191 C 
ENDROOT
BRANCH   7   8
ATOM      8  CB  TYR A 136      37.367  36.835  10.240  1.00 28.16     0.060 C 
BRANCH   8   9
ATOM      9  CG  TYR A 136      37.136  38.284  10.594  1.00 31.88    -0.020 A 
ATOM     10  CD2 TYR A 136      37.278  39.293   9.639  1.00 32.67    -0.002 A 
ATOM     11  CE2 TYR A 136      37.063  40.635   9.978  1.00 33.89     0.027 A 
ATOM     12  CZ  TYR A 136      36.702  40.971  11.285  1.00 34.34     0.131 A 
ATOM     13  OH  TYR A 136      36.476  42.294  11.642  1.00 35.14    -0.190 OA
ATOM     14  CE1 TYR A 136      36.556  39.982  12.246  1.00 35.01     0.027 A 
ATOM     15  CD1 TYR A 136      36.780  38.649  11.898  1.00 33.57    -0.002 A 
ENDBRANCH   8   9
ENDBRANCH   7   8
END_RES TYR A 136
BEGIN_RES ASN A 133
REMARK  2 active torsions:
REMARK  status: ('A' for Active; 'I' for Inactive)
REMARK    7  A    between atoms: CA   and  CB  
REMARK    8  A    between atoms: CB   and  CG  
ROOT
ATOM     16  CA  ASN A 133      31.225  30.257  11.749  1.00 18.15     0.196 C 
ENDROOT
BRANCH  16  17
ATOM     17  CB  ASN A 133      30.092  31.240  11.460  1.00 18.27     0.126 C 
BRANCH  17  18
ATOM     18  CG  ASN A 133      28.753  30.581  11.338  1.00 18.94     0.276 C 
ATOM     19  OD1 ASN A 133      28.597  29.576  10.641  1.00 18.09    -0.269 OA
ATOM     20  ND2 ASN A 133      27.760  31.147  12.023  1.00 18.93    -0.107 N 
ENDBRANCH  17  18
ENDBRANCH  16  17
END_RES ASN A 133
