REMARK VINA RESULT:    -2.666      6.003     13.185
REMARK INTER + INTRA:          -6.479
REMARK INTER:                  -3.146
REMARK INTRA:                  -3.334
REMARK UNBOUND:                -3.424
REMARK SMILES Cc1cn(CC(=O)O)nn1
REMARK SMILES IDX 5 1 4 2 1 3 2 4 3 5 10 6 9 7 6 8 7 9 8 10
REMARK H PARENT 8 11
REMARK Flexibility Score: inf
ROOT
ATOM      1  C   UNL     1      30.252  28.865  21.479  1.00  0.00     0.268 C 
ENDROOT
BRANCH   1   2
ATOM      2  N   UNL     1      30.009  29.727  20.362  1.00  0.00    -0.241 N 
ATOM      3  C   UNL     1      30.587  32.310  17.816  1.00  0.00     0.070 C 
ATOM      4  C   UNL     1      30.169  31.253  18.745  1.00  0.00     0.080 A 
ATOM      5  C   UNL     1      30.813  30.665  19.803  1.00  0.00     0.134 A 
ATOM      6  N   UNL     1      28.958  30.638  18.690  1.00  0.00    -0.136 NA
ATOM      7  N   UNL     1      28.896  29.747  19.653  1.00  0.00    -0.067 NA
ENDBRANCH   1   2
BRANCH   1   8
ATOM      8  C   UNL     1      30.353  27.447  21.020  1.00  0.00     0.325 C 
ATOM      9  O   UNL     1      31.340  26.721  21.330  1.00  0.00    -0.250 OA
BRANCH   8  10
ATOM     10  O   UNL     1      29.376  26.864  20.237  1.00  0.00    -0.480 OA
ATOM     11  H   UNL     1      28.876  26.037  20.477  1.00  0.00     0.296 HD
ENDBRANCH   8  10
ENDBRANCH   1   8
TORSDOF 3
BEGIN_RES LYS A 135
REMARK  4 active torsions:
REMARK  status: ('A' for Active; 'I' for Inactive)
REMARK    1  A    between atoms: CA   and  CB  
REMARK    2  A    between atoms: CB   and  CG  
REMARK    3  A    between atoms: CG   and  CD  
REMARK    4  A    between atoms: CD   and  CE  
ROOT
ATOM      1  CA  LYS A 135      33.193  34.663   9.290  1.00 25.02     0.186 C 
ENDROOT
BRANCH   1   2
ATOM      2  CB  LYS A 135      32.060  35.360  10.034  1.00 26.63     0.034 C 
BRANCH   2   3
ATOM      3  CG  LYS A 135      30.734  34.656   9.908  1.00 29.45     0.005 C 
BRANCH   3   4
ATOM      4  CD  LYS A 135      30.371  34.452   8.445  1.00 32.00     0.041 C 
BRANCH   4   5
ATOM      5  CE  LYS A 135      28.871  34.553   8.249  1.00 34.25     0.338 C 
ATOM      6  NZ  LYS A 135      28.138  33.890   9.363  1.00 35.99     0.618 N 
ENDBRANCH   4   5
ENDBRANCH   3   4
ENDBRANCH   2   3
ENDBRANCH   1   2
END_RES LYS A 135
BEGIN_RES TYR A 136
REMARK  2 active torsions:
REMARK  status: ('A' for Active; 'I' for Inactive)
REMARK    5  A    between atoms: CA   and  CB  
REMARK    6  A    between atoms: CB   and  CG  
ROOT
ATOM      7  CA  TYR A 136      36.583  36.399   8.994  1.00 26.14     0.191 C 
ENDROOT
BRANCH   7   8
ATOM      8  CB  TYR A 136      37.367  36.835  10.240  1.00 28.16     0.060 C 
BRANCH   8   9
ATOM      9  CG  TYR A 136      37.245  38.314  10.514  1.00 31.88    -0.020 A 
ATOM     10  CD2 TYR A 136      36.109  38.843  11.132  1.00 32.67    -0.002 A 
ATOM     11  CE2 TYR A 136      36.005  40.219  11.380  1.00 33.89     0.027 A 
ATOM     12  CZ  TYR A 136      37.046  41.072  11.008  1.00 34.34     0.131 A 
ATOM     13  OH  TYR A 136      36.968  42.436  11.251  1.00 35.14    -0.190 OA
ATOM     14  CE1 TYR A 136      38.181  40.563  10.393  1.00 35.01     0.027 A 
ATOM     15  CD1 TYR A 136      38.271  39.193  10.144  1.00 33.57    -0.002 A 
ENDBRANCH   8   9
ENDBRANCH   7   8
END_RES TYR A 136
BEGIN_RES ASN A 133
REMARK  2 active torsions:
REMARK  status: ('A' for Active; 'I' for Inactive)
REMARK    7  A    between atoms: CA   and  CB  
REMARK    8  A    between atoms: CB   and  CG  
ROOT
ATOM     16  CA  ASN A 133      31.225  30.257  11.749  1.00 18.15     0.196 C 
ENDROOT
BRANCH  16  17
ATOM     17  CB  ASN A 133      30.092  31.240  11.460  1.00 18.27     0.126 C 
BRANCH  17  18
ATOM     18  CG  ASN A 133      28.757  30.578  11.314  1.00 18.94     0.276 C 
ATOM     19  OD1 ASN A 133      28.602  29.610  10.566  1.00 18.09    -0.269 OA
ATOM     20  ND2 ASN A 133      27.766  31.100  12.036  1.00 18.93    -0.107 N 
ENDBRANCH  17  18
ENDBRANCH  16  17
END_RES ASN A 133
