REMARK VINA RESULT:    -4.027      2.207      3.701
REMARK INTER + INTRA:          -7.992
REMARK INTER:                  -4.776
REMARK INTRA:                  -3.216
REMARK UNBOUND:                -3.259
REMARK SMILES Cc1cn(Cc2cccc(C#N)c2)nn1
REMARK SMILES IDX 6 1 7 2 8 3 9 4 10 5 13 6 5 7 4 8 1 9 2 10 3 11 15 12 14 13
REMARK SMILES IDX 11 14 12 15
REMARK H PARENT
REMARK Flexibility Score: inf
ROOT
ATOM      1  C   UNL     1      30.942  32.402  16.502  1.00  0.00    -0.025 A 
ATOM      2  C   UNL     1      30.953  33.105  17.681  1.00  0.00     0.006 A 
ATOM      3  C   UNL     1      31.616  34.307  17.837  1.00  0.00     0.002 A 
ATOM      4  C   UNL     1      32.297  34.814  16.749  1.00  0.00     0.019 A 
ATOM      5  C   UNL     1      32.316  34.143  15.544  1.00  0.00     0.052 A 
ATOM      6  C   UNL     1      31.632  32.932  15.430  1.00  0.00     0.025 A 
ENDROOT
BRANCH   1   7
ATOM      7  C   UNL     1      30.235  31.118  16.333  1.00  0.00     0.181 C 
BRANCH   7   8
ATOM      8  N   UNL     1      28.847  31.268  16.032  1.00  0.00    -0.248 N 
ATOM      9  C   UNL     1      25.454  29.965  15.751  1.00  0.00     0.070 C 
ATOM     10  C   UNL     1      26.727  30.756  15.774  1.00  0.00     0.080 A 
ATOM     11  C   UNL     1      27.950  30.271  16.136  1.00  0.00     0.134 A 
ATOM     12  N   UNL     1      26.897  32.051  15.452  1.00  0.00    -0.136 NA
ATOM     13  N   UNL     1      28.173  32.338  15.613  1.00  0.00    -0.067 NA
ENDBRANCH   7   8
ENDBRANCH   1   7
BRANCH   5  14
ATOM     14  C   UNL     1      33.044  34.727  14.455  1.00  0.00     0.099 C 
ATOM     15  N   UNL     1      33.645  35.199  13.590  1.00  0.00    -0.192 NA
ENDBRANCH   5  14
TORSDOF 3
BEGIN_RES LYS A 135
REMARK  4 active torsions:
REMARK  status: ('A' for Active; 'I' for Inactive)
REMARK    1  A    between atoms: CA   and  CB  
REMARK    2  A    between atoms: CB   and  CG  
REMARK    3  A    between atoms: CG   and  CD  
REMARK    4  A    between atoms: CD   and  CE  
ROOT
ATOM      1  CA  LYS A 135      33.193  34.663   9.290  1.00 25.02     0.186 C 
ENDROOT
BRANCH   1   2
ATOM      2  CB  LYS A 135      32.060  35.360  10.034  1.00 26.63     0.034 C 
BRANCH   2   3
ATOM      3  CG  LYS A 135      30.731  34.664   9.896  1.00 29.45     0.005 C 
BRANCH   3   4
ATOM      4  CD  LYS A 135      30.348  34.522   8.431  1.00 32.00     0.041 C 
BRANCH   4   5
ATOM      5  CE  LYS A 135      28.841  34.566   8.267  1.00 34.25     0.338 C 
ATOM      6  NZ  LYS A 135      28.159  33.867   9.391  1.00 35.99     0.618 N 
ENDBRANCH   4   5
ENDBRANCH   3   4
ENDBRANCH   2   3
ENDBRANCH   1   2
END_RES LYS A 135
BEGIN_RES TYR A 136
REMARK  2 active torsions:
REMARK  status: ('A' for Active; 'I' for Inactive)
REMARK    5  A    between atoms: CA   and  CB  
REMARK    6  A    between atoms: CB   and  CG  
ROOT
ATOM      7  CA  TYR A 136      36.583  36.399   8.994  1.00 26.14     0.191 C 
ENDROOT
BRANCH   7   8
ATOM      8  CB  TYR A 136      37.367  36.835  10.240  1.00 28.16     0.060 C 
BRANCH   8   9
ATOM      9  CG  TYR A 136      37.207  38.305  10.541  1.00 31.88    -0.020 A 
ATOM     10  CD2 TYR A 136      37.903  39.272   9.813  1.00 32.67    -0.002 A 
ATOM     11  CE2 TYR A 136      37.749  40.635  10.101  1.00 33.89     0.027 A 
ATOM     12  CZ  TYR A 136      36.890  41.033  11.129  1.00 34.34     0.131 A 
ATOM     13  OH  TYR A 136      36.717  42.378  11.428  1.00 35.14    -0.190 OA
ATOM     14  CE1 TYR A 136      36.192  40.086  11.864  1.00 35.01     0.027 A 
ATOM     15  CD1 TYR A 136      36.359  38.731  11.571  1.00 33.57    -0.002 A 
ENDBRANCH   8   9
ENDBRANCH   7   8
END_RES TYR A 136
BEGIN_RES ASN A 133
REMARK  2 active torsions:
REMARK  status: ('A' for Active; 'I' for Inactive)
REMARK    7  A    between atoms: CA   and  CB  
REMARK    8  A    between atoms: CB   and  CG  
ROOT
ATOM     16  CA  ASN A 133      31.225  30.257  11.749  1.00 18.15     0.196 C 
ENDROOT
BRANCH  16  17
ATOM     17  CB  ASN A 133      30.092  31.240  11.460  1.00 18.27     0.126 C 
BRANCH  17  18
ATOM     18  CG  ASN A 133      28.749  30.584  11.368  1.00 18.94     0.276 C 
ATOM     19  OD1 ASN A 133      28.562  29.612  10.634  1.00 18.09    -0.269 OA
ATOM     20  ND2 ASN A 133      27.787  31.118  12.120  1.00 18.93    -0.107 N 
ENDBRANCH  17  18
ENDBRANCH  16  17
END_RES ASN A 133
