REMARK VINA RESULT:    -4.138      3.468      6.615
REMARK INTER + INTRA:          -6.561
REMARK INTER:                  -5.292
REMARK INTRA:                  -1.269
REMARK UNBOUND:                -2.181
REMARK SMILES Cc1cn(-c2ccccc2)nn1
REMARK SMILES IDX 5 1 6 2 7 3 8 4 9 5 10 6 4 7 1 8 2 9 3 10 12 11 11 12
REMARK H PARENT
REMARK Flexibility Score: inf
ROOT
ATOM      1  C   UNL     1      27.564  35.211   8.613  1.00  0.00     0.066 A 
ATOM      2  C   UNL     1      28.524  35.511   7.666  1.00  0.00     0.028 A 
ATOM      3  C   UNL     1      29.788  34.974   7.712  1.00  0.00     0.002 A 
ATOM      4  C   UNL     1      30.155  34.103   8.717  1.00  0.00     0.000 A 
ATOM      5  C   UNL     1      29.197  33.802   9.664  1.00  0.00     0.002 A 
ATOM      6  C   UNL     1      27.927  34.342   9.619  1.00  0.00     0.028 A 
ENDROOT
BRANCH   1   7
ATOM      7  N   UNL     1      26.247  35.763   8.576  1.00  0.00    -0.220 N 
ATOM      8  C   UNL     1      22.709  35.944   9.537  1.00  0.00     0.070 C 
ATOM      9  C   UNL     1      24.074  36.116   8.969  1.00  0.00     0.080 A 
ATOM     10  C   UNL     1      25.180  35.326   9.267  1.00  0.00     0.140 A 
ATOM     11  N   UNL     1      24.532  37.018   8.090  1.00  0.00    -0.135 NA
ATOM     12  N   UNL     1      25.817  36.796   7.868  1.00  0.00    -0.062 NA
ENDBRANCH   1   7
TORSDOF 1
BEGIN_RES LYS A 135
REMARK  4 active torsions:
REMARK  status: ('A' for Active; 'I' for Inactive)
REMARK    1  A    between atoms: CA   and  CB  
REMARK    2  A    between atoms: CB   and  CG  
REMARK    3  A    between atoms: CG   and  CD  
REMARK    4  A    between atoms: CD   and  CE  
ROOT
ATOM      1  CA  LYS A 135      33.193  34.663   9.290  1.00 25.02     0.186 C 
ENDROOT
BRANCH   1   2
ATOM      2  CB  LYS A 135      32.060  35.360  10.034  1.00 26.63     0.034 C 
BRANCH   2   3
ATOM      3  CG  LYS A 135      32.248  35.388  11.529  1.00 29.45     0.005 C 
BRANCH   3   4
ATOM      4  CD  LYS A 135      31.042  36.015  12.210  1.00 32.00     0.041 C 
BRANCH   4   5
ATOM      5  CE  LYS A 135      30.542  37.207  11.416  1.00 34.25     0.338 C 
ATOM      6  NZ  LYS A 135      29.054  37.229  11.361  1.00 35.99     0.618 N 
ENDBRANCH   4   5
ENDBRANCH   3   4
ENDBRANCH   2   3
ENDBRANCH   1   2
END_RES LYS A 135
BEGIN_RES TYR A 136
REMARK  2 active torsions:
REMARK  status: ('A' for Active; 'I' for Inactive)
REMARK    5  A    between atoms: CA   and  CB  
REMARK    6  A    between atoms: CB   and  CG  
ROOT
ATOM      7  CA  TYR A 136      36.583  36.399   8.994  1.00 26.14     0.191 C 
ENDROOT
BRANCH   7   8
ATOM      8  CB  TYR A 136      37.367  36.835  10.240  1.00 28.16     0.060 C 
BRANCH   8   9
ATOM      9  CG  TYR A 136      37.199  38.303  10.547  1.00 31.88    -0.020 A 
ATOM     10  CD2 TYR A 136      36.422  39.128   9.731  1.00 32.67    -0.002 A 
ATOM     11  CE2 TYR A 136      36.274  40.491  10.024  1.00 33.89     0.027 A 
ATOM     12  CZ  TYR A 136      36.910  41.033  11.143  1.00 34.34     0.131 A 
ATOM     13  OH  TYR A 136      36.772  42.378  11.456  1.00 35.14    -0.190 OA
ATOM     14  CE1 TYR A 136      37.687  40.228  11.964  1.00 35.01     0.027 A 
ATOM     15  CD1 TYR A 136      37.832  38.874  11.659  1.00 33.57    -0.002 A 
ENDBRANCH   8   9
ENDBRANCH   7   8
END_RES TYR A 136
BEGIN_RES ASN A 133
REMARK  2 active torsions:
REMARK  status: ('A' for Active; 'I' for Inactive)
REMARK    7  A    between atoms: CA   and  CB  
REMARK    8  A    between atoms: CB   and  CG  
ROOT
ATOM     16  CA  ASN A 133      31.225  30.257  11.749  1.00 18.15     0.196 C 
ENDROOT
BRANCH  16  17
ATOM     17  CB  ASN A 133      30.092  31.240  11.460  1.00 18.27     0.126 C 
BRANCH  17  18
ATOM     18  CG  ASN A 133      28.751  30.582  11.352  1.00 18.94     0.276 C 
ATOM     19  OD1 ASN A 133      28.581  29.593  10.637  1.00 18.09    -0.269 OA
ATOM     20  ND2 ASN A 133      27.772  31.133  12.069  1.00 18.93    -0.107 N 
ENDBRANCH  17  18
ENDBRANCH  16  17
END_RES ASN A 133
