REMARK VINA RESULT:    -4.281      3.827      7.230
REMARK INTER + INTRA:         -10.223
REMARK INTER:                  -6.463
REMARK INTRA:                  -3.760
REMARK UNBOUND:                -4.315
REMARK SMILES CCOCCc1c(-c2ccccc2)nc(N)nc1-n1cc(C)nn1
REMARK SMILES IDX 5 1 6 2 18 3 17 4 15 5 7 6 14 7 19 8 22 9 21 10 20 11 23 12
REMARK SMILES IDX 24 13 16 14 8 17 9 18 13 19 10 20 12 21 11 22 4 23 3 24 2 25
REMARK SMILES IDX 1 26
REMARK H PARENT 16 15 16 16
REMARK Flexibility Score: inf
ROOT
ATOM      1  C   UNL     1      40.594  35.099  14.940  1.00  0.00     0.070 C 
ENDROOT
BRANCH   1   2
ATOM      2  C   UNL     1      39.293  34.786  14.366  1.00  0.00     0.026 A 
ATOM      3  C   UNL     1      39.150  34.785  12.980  1.00  0.00     0.164 A 
ATOM      4  N   UNL     1      37.928  34.444  12.485  1.00  0.00    -0.193 NA
ATOM      5  C   UNL     1      36.877  34.116  13.224  1.00  0.00     0.222 A 
ATOM      6  C   UNL     1      38.217  34.450  15.138  1.00  0.00     0.081 A 
ATOM      7  N   UNL     1      37.014  34.116  14.561  1.00  0.00    -0.213 NA
BRANCH   3   8
ATOM      8  N   UNL     1      40.216  35.127  12.110  1.00  0.00    -0.202 N 
ATOM      9  C   UNL     1      42.109  37.088   9.652  1.00  0.00     0.070 C 
ATOM     10  C   UNL     1      41.564  36.116  10.633  1.00  0.00     0.080 A 
ATOM     11  C   UNL     1      40.342  36.196  11.316  1.00  0.00     0.142 A 
ATOM     12  N   UNL     1      42.116  34.967  11.071  1.00  0.00    -0.135 NA
ATOM     13  N   UNL     1      41.300  34.397  11.946  1.00  0.00    -0.061 NA
ENDBRANCH   3   8
BRANCH   5  14
ATOM     14  N   UNL     1      35.615  33.764  12.618  1.00  0.00    -0.368 N 
ATOM     15  H   UNL     1      35.315  34.270  11.773  1.00  0.00     0.159 HD
ATOM     16  H   UNL     1      35.002  33.022  13.003  1.00  0.00     0.159 HD
ENDBRANCH   5  14
BRANCH   6  17
ATOM     17  C   UNL     1      38.215  34.391  16.593  1.00  0.00     0.001 A 
ATOM     18  C   UNL     1      37.809  35.370  17.437  1.00  0.00     0.010 A 
ATOM     19  C   UNL     1      38.719  33.212  17.147  1.00  0.00     0.010 A 
ATOM     20  C   UNL     1      37.885  35.226  18.827  1.00  0.00     0.001 A 
ATOM     21  C   UNL     1      38.793  33.069  18.513  1.00  0.00     0.001 A 
ATOM     22  C   UNL     1      38.382  34.064  19.373  1.00  0.00     0.000 A 
ENDBRANCH   6  17
ENDBRANCH   1   2
BRANCH   1  23
ATOM     23  C   UNL     1      40.657  36.496  15.538  1.00  0.00     0.165 C 
BRANCH  23  24
ATOM     24  O   UNL     1      40.346  37.467  14.605  1.00  0.00    -0.381 OA
BRANCH  24  25
ATOM     25  C   UNL     1      39.346  38.303  15.096  1.00  0.00     0.156 C 
ATOM     26  C   UNL     1      38.140  38.309  14.166  1.00  0.00     0.035 C 
ENDBRANCH  24  25
ENDBRANCH  23  24
ENDBRANCH   1  23
TORSDOF 7
BEGIN_RES LYS A 135
REMARK  4 active torsions:
REMARK  status: ('A' for Active; 'I' for Inactive)
REMARK    1  A    between atoms: CA   and  CB  
REMARK    2  A    between atoms: CB   and  CG  
REMARK    3  A    between atoms: CG   and  CD  
REMARK    4  A    between atoms: CD   and  CE  
ROOT
ATOM      1  CA  LYS A 135      33.193  34.663   9.290  1.00 25.02     0.186 C 
ENDROOT
BRANCH   1   2
ATOM      2  CB  LYS A 135      32.060  35.360  10.034  1.00 26.63     0.034 C 
BRANCH   2   3
ATOM      3  CG  LYS A 135      30.808  35.520   9.211  1.00 29.45     0.005 C 
BRANCH   3   4
ATOM      4  CD  LYS A 135      30.010  34.225   9.192  1.00 32.00     0.041 C 
BRANCH   4   5
ATOM      5  CE  LYS A 135      28.798  34.332  10.097  1.00 34.25     0.338 C 
ATOM      6  NZ  LYS A 135      27.579  33.797   9.428  1.00 35.99     0.618 N 
ENDBRANCH   4   5
ENDBRANCH   3   4
ENDBRANCH   2   3
ENDBRANCH   1   2
END_RES LYS A 135
BEGIN_RES TYR A 136
REMARK  2 active torsions:
REMARK  status: ('A' for Active; 'I' for Inactive)
REMARK    5  A    between atoms: CA   and  CB  
REMARK    6  A    between atoms: CB   and  CG  
ROOT
ATOM      7  CA  TYR A 136      36.583  36.399   8.994  1.00 26.14     0.191 C 
ENDROOT
BRANCH   7   8
ATOM      8  CB  TYR A 136      37.367  36.835  10.240  1.00 28.16     0.060 C 
BRANCH   8   9
ATOM      9  CG  TYR A 136      37.234  38.311  10.522  1.00 31.88    -0.020 A 
ATOM     10  CD2 TYR A 136      38.278  39.197  10.246  1.00 32.67    -0.002 A 
ATOM     11  CE2 TYR A 136      38.145  40.567  10.513  1.00 33.89     0.027 A 
ATOM     12  CZ  TYR A 136      36.956  41.054  11.062  1.00 34.34     0.131 A 
ATOM     13  OH  TYR A 136      36.800  42.407  11.329  1.00 35.14    -0.190 OA
ATOM     14  CE1 TYR A 136      35.910  40.188  11.344  1.00 35.01     0.027 A 
ATOM     15  CD1 TYR A 136      36.056  38.825  11.079  1.00 33.57    -0.002 A 
ENDBRANCH   8   9
ENDBRANCH   7   8
END_RES TYR A 136
BEGIN_RES ASN A 133
REMARK  2 active torsions:
REMARK  status: ('A' for Active; 'I' for Inactive)
REMARK    7  A    between atoms: CA   and  CB  
REMARK    8  A    between atoms: CB   and  CG  
ROOT
ATOM     16  CA  ASN A 133      31.225  30.257  11.749  1.00 18.15     0.196 C 
ENDROOT
BRANCH  16  17
ATOM     17  CB  ASN A 133      30.092  31.240  11.460  1.00 18.27     0.126 C 
BRANCH  17  18
ATOM     18  CG  ASN A 133      28.758  30.577  11.310  1.00 18.94     0.276 C 
ATOM     19  OD1 ASN A 133      28.608  29.604  10.569  1.00 18.09    -0.269 OA
ATOM     20  ND2 ASN A 133      27.761  31.106  12.020  1.00 18.93    -0.107 N 
ENDBRANCH  17  18
ENDBRANCH  16  17
END_RES ASN A 133
