REMARK VINA RESULT:    -3.150      5.196      8.176
REMARK INTER + INTRA:          -7.550
REMARK INTER:                  -3.906
REMARK INTRA:                  -3.644
REMARK UNBOUND:                -3.295
REMARK SMILES CC[N+](C)(CC)CCCn1cc(C)nn1
REMARK SMILES IDX 8 1 9 2 10 3 13 4 12 5 11 6 14 7 15 8 7 9 3 10 4 11 2 12
REMARK SMILES IDX 1 13 5 14 6 15
REMARK H PARENT
REMARK Flexibility Score: inf
ROOT
ATOM      1  C   UNL     1      35.801  39.318   5.961  1.00  0.00     0.085 C 
ENDROOT
BRANCH   1   2
ATOM      2  C   UNL     1      35.806  37.943   5.327  1.00  0.00     0.152 C 
BRANCH   2   3
ATOM      3  N   UNL     1      36.045  38.076   3.905  1.00  0.00    -0.252 N 
ATOM      4  C   UNL     1      38.201  37.879   0.965  1.00  0.00     0.070 C 
ATOM      5  C   UNL     1      37.093  38.053   1.943  1.00  0.00     0.080 A 
ATOM      6  C   UNL     1      37.242  37.824   3.299  1.00  0.00     0.134 A 
ATOM      7  N   UNL     1      35.830  38.433   1.765  1.00  0.00    -0.136 NA
ATOM      8  N   UNL     1      35.238  38.437   2.940  1.00  0.00    -0.067 NA
ENDBRANCH   2   3
ENDBRANCH   1   2
BRANCH   1   9
ATOM      9  C   UNL     1      34.417  39.626   6.442  1.00  0.00     0.265 C 
BRANCH   9  10
ATOM     10  N   UNL     1      33.850  40.787   5.782  1.00  0.00    -0.326 N 
ATOM     11  C   UNL     1      34.814  41.487   4.981  1.00  0.00     0.334 C 
BRANCH  10  12
ATOM     12  C   UNL     1      32.856  40.245   4.838  1.00  0.00     0.260 C 
ATOM     13  C   UNL     1      31.548  39.963   5.492  1.00  0.00     0.071 C 
ENDBRANCH  10  12
BRANCH  10  14
ATOM     14  C   UNL     1      33.137  41.593   6.704  1.00  0.00     0.260 C 
ATOM     15  C   UNL     1      33.930  42.278   7.744  1.00  0.00     0.071 C 
ENDBRANCH  10  14
ENDBRANCH   9  10
ENDBRANCH   1   9
TORSDOF 6
BEGIN_RES LYS A 135
REMARK  4 active torsions:
REMARK  status: ('A' for Active; 'I' for Inactive)
REMARK    1  A    between atoms: CA   and  CB  
REMARK    2  A    between atoms: CB   and  CG  
REMARK    3  A    between atoms: CG   and  CD  
REMARK    4  A    between atoms: CD   and  CE  
ROOT
ATOM      1  CA  LYS A 135      33.193  34.663   9.290  1.00 25.02     0.186 C 
ENDROOT
BRANCH   1   2
ATOM      2  CB  LYS A 135      32.060  35.360  10.034  1.00 26.63     0.034 C 
BRANCH   2   3
ATOM      3  CG  LYS A 135      30.726  34.677   9.877  1.00 29.45     0.005 C 
BRANCH   3   4
ATOM      4  CD  LYS A 135      30.344  34.576   8.408  1.00 32.00     0.041 C 
BRANCH   4   5
ATOM      5  CE  LYS A 135      28.836  34.568   8.249  1.00 34.25     0.338 C 
ATOM      6  NZ  LYS A 135      28.181  33.859   9.383  1.00 35.99     0.618 N 
ENDBRANCH   4   5
ENDBRANCH   3   4
ENDBRANCH   2   3
ENDBRANCH   1   2
END_RES LYS A 135
BEGIN_RES TYR A 136
REMARK  2 active torsions:
REMARK  status: ('A' for Active; 'I' for Inactive)
REMARK    5  A    between atoms: CA   and  CB  
REMARK    6  A    between atoms: CB   and  CG  
ROOT
ATOM      7  CA  TYR A 136      36.583  36.399   8.994  1.00 26.14     0.191 C 
ENDROOT
BRANCH   7   8
ATOM      8  CB  TYR A 136      37.367  36.835  10.240  1.00 28.16     0.060 C 
BRANCH   8   9
ATOM      9  CG  TYR A 136      37.232  38.311  10.523  1.00 31.88    -0.020 A 
ATOM     10  CD2 TYR A 136      36.592  39.165   9.622  1.00 32.67    -0.002 A 
ATOM     11  CE2 TYR A 136      36.473  40.535   9.894  1.00 33.89     0.027 A 
ATOM     12  CZ  TYR A 136      37.001  41.055  11.079  1.00 34.34     0.131 A 
ATOM     13  OH  TYR A 136      36.889  42.407  11.372  1.00 35.14    -0.190 OA
ATOM     14  CE1 TYR A 136      37.641  40.221  11.984  1.00 35.01     0.027 A 
ATOM     15  CD1 TYR A 136      37.759  38.860  11.700  1.00 33.57    -0.002 A 
ENDBRANCH   8   9
ENDBRANCH   7   8
END_RES TYR A 136
BEGIN_RES ASN A 133
REMARK  2 active torsions:
REMARK  status: ('A' for Active; 'I' for Inactive)
REMARK    7  A    between atoms: CA   and  CB  
REMARK    8  A    between atoms: CB   and  CG  
ROOT
ATOM     16  CA  ASN A 133      31.225  30.257  11.749  1.00 18.15     0.196 C 
ENDROOT
BRANCH  16  17
ATOM     17  CB  ASN A 133      30.092  31.240  11.460  1.00 18.27     0.126 C 
BRANCH  17  18
ATOM     18  CG  ASN A 133      28.758  30.577  11.306  1.00 18.94     0.276 C 
ATOM     19  OD1 ASN A 133      28.608  29.612  10.555  1.00 18.09    -0.269 OA
ATOM     20  ND2 ASN A 133      27.763  31.096  12.025  1.00 18.93    -0.107 N 
ENDBRANCH  17  18
ENDBRANCH  16  17
END_RES ASN A 133
