REMARK VINA RESULT:    -4.016      2.655      4.391
REMARK INTER + INTRA:          -9.094
REMARK INTER:                  -5.578
REMARK INTRA:                  -3.515
REMARK UNBOUND:                -3.551
REMARK SMILES Cc1cn(C[C@H](CC(=O)O)CC(C)C)nn1
REMARK SMILES IDX 7 1 6 2 5 3 4 4 1 5 2 6 3 7 16 8 15 9 11 10 12 11 13 12
REMARK SMILES IDX 14 13 8 14 9 15 10 16
REMARK H PARENT 10 17
REMARK Flexibility Score: inf
ROOT
ATOM      1  C   UNL     1      38.026  33.388  13.233  1.00  0.00     0.128 C 
ENDROOT
BRANCH   1   2
ATOM      2  C   UNL     1      38.943  34.466  13.722  1.00  0.00     0.022 C 
BRANCH   2   3
ATOM      3  C   UNL     1      38.934  35.723  12.897  1.00  0.00     0.150 C 
BRANCH   3   4
ATOM      4  N   UNL     1      40.052  35.765  11.965  1.00  0.00    -0.252 N 
ATOM      5  C   UNL     1      41.826  37.028   9.064  1.00  0.00     0.070 C 
ATOM      6  C   UNL     1      41.322  36.346  10.274  1.00  0.00     0.080 A 
ATOM      7  C   UNL     1      40.111  36.603  10.920  1.00  0.00     0.134 A 
ATOM      8  N   UNL     1      41.922  35.374  10.959  1.00  0.00    -0.136 NA
ATOM      9  N   UNL     1      41.152  35.028  11.976  1.00  0.00    -0.067 NA
ENDBRANCH   3   4
ENDBRANCH   2   3
BRANCH   2  10
ATOM     10  C   UNL     1      39.159  34.567  15.158  1.00  0.00     0.009 C 
BRANCH  10  11
ATOM     11  C   UNL     1      38.239  34.074  16.178  1.00  0.00    -0.017 C 
ATOM     12  C   UNL     1      37.622  35.357  16.820  1.00  0.00     0.007 C 
ATOM     13  C   UNL     1      38.844  33.363  17.366  1.00  0.00     0.007 C 
ENDBRANCH  10  11
ENDBRANCH   2  10
ENDBRANCH   1   2
BRANCH   1  14
ATOM     14  C   UNL     1      36.986  33.748  12.297  1.00  0.00     0.303 C 
ATOM     15  O   UNL     1      35.867  34.146  12.650  1.00  0.00    -0.252 OA
BRANCH  14  16
ATOM     16  O   UNL     1      37.239  33.649  10.937  1.00  0.00    -0.481 OA
ATOM     17  H   UNL     1      36.624  33.184  10.290  1.00  0.00     0.296 HD
ENDBRANCH  14  16
ENDBRANCH   1  14
TORSDOF 7
BEGIN_RES LYS A 135
REMARK  4 active torsions:
REMARK  status: ('A' for Active; 'I' for Inactive)
REMARK    1  A    between atoms: CA   and  CB  
REMARK    2  A    between atoms: CB   and  CG  
REMARK    3  A    between atoms: CG   and  CD  
REMARK    4  A    between atoms: CD   and  CE  
ROOT
ATOM      1  CA  LYS A 135      33.193  34.663   9.290  1.00 25.02     0.186 C 
ENDROOT
BRANCH   1   2
ATOM      2  CB  LYS A 135      32.060  35.360  10.034  1.00 26.63     0.034 C 
BRANCH   2   3
ATOM      3  CG  LYS A 135      30.815  35.539   9.204  1.00 29.45     0.005 C 
BRANCH   3   4
ATOM      4  CD  LYS A 135      30.175  34.193   8.900  1.00 32.00     0.041 C 
BRANCH   4   5
ATOM      5  CE  LYS A 135      28.699  34.362   8.592  1.00 34.25     0.338 C 
ATOM      6  NZ  LYS A 135      27.856  33.692   9.620  1.00 35.99     0.618 N 
ENDBRANCH   4   5
ENDBRANCH   3   4
ENDBRANCH   2   3
ENDBRANCH   1   2
END_RES LYS A 135
BEGIN_RES TYR A 136
REMARK  2 active torsions:
REMARK  status: ('A' for Active; 'I' for Inactive)
REMARK    5  A    between atoms: CA   and  CB  
REMARK    6  A    between atoms: CB   and  CG  
ROOT
ATOM      7  CA  TYR A 136      36.583  36.399   8.994  1.00 26.14     0.191 C 
ENDROOT
BRANCH   7   8
ATOM      8  CB  TYR A 136      37.367  36.835  10.240  1.00 28.16     0.060 C 
BRANCH   8   9
ATOM      9  CG  TYR A 136      36.788  38.069  10.887  1.00 31.88    -0.020 A 
ATOM     10  CD2 TYR A 136      36.036  37.985  12.061  1.00 32.67    -0.002 A 
ATOM     11  CE2 TYR A 136      35.502  39.137  12.653  1.00 33.89     0.027 A 
ATOM     12  CZ  TYR A 136      35.721  40.385  12.065  1.00 34.34     0.131 A 
ATOM     13  OH  TYR A 136      35.208  41.540  12.638  1.00 35.14    -0.190 OA
ATOM     14  CE1 TYR A 136      36.465  40.487  10.898  1.00 35.01     0.027 A 
ATOM     15  CD1 TYR A 136      36.987  39.332  10.314  1.00 33.57    -0.002 A 
ENDBRANCH   8   9
ENDBRANCH   7   8
END_RES TYR A 136
BEGIN_RES ASN A 133
REMARK  2 active torsions:
REMARK  status: ('A' for Active; 'I' for Inactive)
REMARK    7  A    between atoms: CA   and  CB  
REMARK    8  A    between atoms: CB   and  CG  
ROOT
ATOM     16  CA  ASN A 133      31.225  30.257  11.749  1.00 18.15     0.196 C 
ENDROOT
BRANCH  16  17
ATOM     17  CB  ASN A 133      30.092  31.240  11.460  1.00 18.27     0.126 C 
BRANCH  17  18
ATOM     18  CG  ASN A 133      28.754  30.580  11.331  1.00 18.94     0.276 C 
ATOM     19  OD1 ASN A 133      28.584  29.627  10.568  1.00 18.09    -0.269 OA
ATOM     20  ND2 ASN A 133      27.779  31.087  12.083  1.00 18.93    -0.107 N 
ENDBRANCH  17  18
ENDBRANCH  16  17
END_RES ASN A 133
