REMARK VINA RESULT:    -3.558      7.097     12.294
REMARK INTER + INTRA:          -7.051
REMARK INTER:                  -3.891
REMARK INTRA:                  -3.160
REMARK UNBOUND:                -2.973
REMARK SMILES Cc1cn(CCO)nn1
REMARK SMILES IDX 5 1 4 2 1 3 2 4 3 5 9 6 8 7 6 8 7 9
REMARK H PARENT 7 10
REMARK Flexibility Score: inf
ROOT
ATOM      1  C   UNL     1      22.838  29.457   0.485  1.00  0.00     0.174 C 
ENDROOT
BRANCH   1   2
ATOM      2  N   UNL     1      22.622  30.837   0.102  1.00  0.00    -0.250 N 
ATOM      3  C   UNL     1      21.699  33.329  -2.415  1.00  0.00     0.070 C 
ATOM      4  C   UNL     1      22.106  32.541  -1.222  1.00  0.00     0.080 A 
ATOM      5  C   UNL     1      22.234  31.170  -1.142  1.00  0.00     0.134 A 
ATOM      6  N   UNL     1      22.433  32.972   0.013  1.00  0.00    -0.136 NA
ATOM      7  N   UNL     1      22.736  31.940   0.780  1.00  0.00    -0.067 NA
ENDBRANCH   1   2
BRANCH   1   8
ATOM      8  C   UNL     1      23.863  29.331   1.587  1.00  0.00     0.179 C 
BRANCH   8   9
ATOM      9  O   UNL     1      23.454  30.063   2.716  1.00  0.00    -0.394 OA
ATOM     10  H   UNL     1      23.720  29.542   3.517  1.00  0.00     0.210 HD
ENDBRANCH   8   9
ENDBRANCH   1   8
TORSDOF 3
BEGIN_RES LYS A 135
REMARK  4 active torsions:
REMARK  status: ('A' for Active; 'I' for Inactive)
REMARK    1  A    between atoms: CA   and  CB  
REMARK    2  A    between atoms: CB   and  CG  
REMARK    3  A    between atoms: CG   and  CD  
REMARK    4  A    between atoms: CD   and  CE  
ROOT
ATOM      1  CA  LYS A 135      33.193  34.663   9.290  1.00 25.02     0.186 C 
ENDROOT
BRANCH   1   2
ATOM      2  CB  LYS A 135      32.060  35.360  10.034  1.00 26.63     0.034 C 
BRANCH   2   3
ATOM      3  CG  LYS A 135      30.708  34.742   9.788  1.00 29.45     0.005 C 
BRANCH   3   4
ATOM      4  CD  LYS A 135      30.417  34.665   8.297  1.00 32.00     0.041 C 
BRANCH   4   5
ATOM      5  CE  LYS A 135      29.090  35.327   7.978  1.00 34.25     0.338 C 
ATOM      6  NZ  LYS A 135      28.933  35.534   6.511  1.00 35.99     0.618 N 
ENDBRANCH   4   5
ENDBRANCH   3   4
ENDBRANCH   2   3
ENDBRANCH   1   2
END_RES LYS A 135
BEGIN_RES TYR A 136
REMARK  2 active torsions:
REMARK  status: ('A' for Active; 'I' for Inactive)
REMARK    5  A    between atoms: CA   and  CB  
REMARK    6  A    between atoms: CB   and  CG  
ROOT
ATOM      7  CA  TYR A 136      36.583  36.399   8.994  1.00 26.14     0.191 C 
ENDROOT
BRANCH   7   8
ATOM      8  CB  TYR A 136      37.367  36.835  10.240  1.00 28.16     0.060 C 
BRANCH   8   9
ATOM      9  CG  TYR A 136      37.203  38.304  10.544  1.00 31.88    -0.020 A 
ATOM     10  CD2 TYR A 136      37.753  38.869  11.697  1.00 32.67    -0.002 A 
ATOM     11  CE2 TYR A 136      37.593  40.235  11.971  1.00 33.89     0.027 A 
ATOM     12  CZ  TYR A 136      36.878  41.042  11.083  1.00 34.34     0.131 A 
ATOM     13  OH  TYR A 136      36.713  42.397  11.330  1.00 35.14    -0.190 OA
ATOM     14  CE1 TYR A 136      36.324  40.496   9.933  1.00 35.01     0.027 A 
ATOM     15  CD1 TYR A 136      36.484  39.134   9.675  1.00 33.57    -0.002 A 
ENDBRANCH   8   9
ENDBRANCH   7   8
END_RES TYR A 136
BEGIN_RES ASN A 133
REMARK  2 active torsions:
REMARK  status: ('A' for Active; 'I' for Inactive)
REMARK    7  A    between atoms: CA   and  CB  
REMARK    8  A    between atoms: CB   and  CG  
ROOT
ATOM     16  CA  ASN A 133      31.225  30.257  11.749  1.00 18.15     0.196 C 
ENDROOT
BRANCH  16  17
ATOM     17  CB  ASN A 133      30.092  31.240  11.460  1.00 18.27     0.126 C 
BRANCH  17  18
ATOM     18  CG  ASN A 133      28.749  30.584  11.369  1.00 18.94     0.276 C 
ATOM     19  OD1 ASN A 133      28.560  29.616  10.630  1.00 18.09    -0.269 OA
ATOM     20  ND2 ASN A 133      27.789  31.113  12.127  1.00 18.93    -0.107 N 
ENDBRANCH  17  18
ENDBRANCH  16  17
END_RES ASN A 133
