REMARK VINA RESULT:    -4.722      4.532      9.646
REMARK INTER + INTRA:          -8.902
REMARK INTER:                  -6.498
REMARK INTRA:                  -2.404
REMARK UNBOUND:                -3.214
REMARK SMILES Cc1cn(-c2cccc(C=CC(=O)O)c2)nn1
REMARK SMILES IDX 10 1 11 2 9 3 5 4 15 5 6 6 7 7 8 8 4 9 1 10 2 11 3 12 17 13
REMARK SMILES IDX 16 14 12 15 13 16 14 17
REMARK H PARENT 14 18
REMARK Flexibility Score: inf
ROOT
ATOM      1  C   UNL     1      24.485  35.696   9.626  1.00  0.00     0.015 C 
ATOM      2  C   UNL     1      23.232  35.724   9.498  1.00  0.00     0.094 C 
ENDROOT
BRANCH   1   3
ATOM      3  C   UNL     1      25.584  35.824   8.723  1.00  0.00    -0.023 A 
ATOM      4  C   UNL     1      26.890  36.899   6.996  1.00  0.00     0.067 A 
ATOM      5  C   UNL     1      25.837  36.896   7.919  1.00  0.00     0.036 A 
ATOM      6  C   UNL     1      27.686  35.782   6.910  1.00  0.00     0.028 A 
ATOM      7  C   UNL     1      27.449  34.690   7.716  1.00  0.00     0.003 A 
ATOM      8  C   UNL     1      26.423  34.694   8.611  1.00  0.00     0.008 A 
BRANCH   4   9
ATOM      9  N   UNL     1      27.117  38.036   6.173  1.00  0.00    -0.220 N 
ATOM     10  C   UNL     1      26.922  41.602   5.250  1.00  0.00     0.070 C 
ATOM     11  C   UNL     1      27.130  40.133   5.398  1.00  0.00     0.080 A 
ATOM     12  C   UNL     1      26.726  39.310   6.429  1.00  0.00     0.140 A 
ATOM     13  N   UNL     1      27.766  39.311   4.533  1.00  0.00    -0.135 NA
ATOM     14  N   UNL     1      27.752  38.073   5.003  1.00  0.00    -0.062 NA
ENDBRANCH   4   9
ENDBRANCH   1   3
BRANCH   2  15
ATOM     15  C   UNL     1      22.302  35.883   8.443  1.00  0.00     0.328 C 
ATOM     16  O   UNL     1      22.232  36.796   7.596  1.00  0.00    -0.247 OA
BRANCH  15  17
ATOM     17  O   UNL     1      21.277  34.883   8.280  1.00  0.00    -0.478 OA
ATOM     18  H   UNL     1      20.383  35.105   8.721  1.00  0.00     0.297 HD
ENDBRANCH  15  17
ENDBRANCH   2  15
TORSDOF 4
BEGIN_RES LYS A 135
REMARK  4 active torsions:
REMARK  status: ('A' for Active; 'I' for Inactive)
REMARK    1  A    between atoms: CA   and  CB  
REMARK    2  A    between atoms: CB   and  CG  
REMARK    3  A    between atoms: CG   and  CD  
REMARK    4  A    between atoms: CD   and  CE  
ROOT
ATOM      1  CA  LYS A 135      33.193  34.663   9.290  1.00 25.02     0.186 C 
ENDROOT
BRANCH   1   2
ATOM      2  CB  LYS A 135      32.060  35.360  10.034  1.00 26.63     0.034 C 
BRANCH   2   3
ATOM      3  CG  LYS A 135      30.785  35.456   9.237  1.00 29.45     0.005 C 
BRANCH   3   4
ATOM      4  CD  LYS A 135      30.405  36.910   9.004  1.00 32.00     0.041 C 
BRANCH   4   5
ATOM      5  CE  LYS A 135      29.225  37.298   9.874  1.00 34.25     0.338 C 
ATOM      6  NZ  LYS A 135      28.825  36.176  10.767  1.00 35.99     0.618 N 
ENDBRANCH   4   5
ENDBRANCH   3   4
ENDBRANCH   2   3
ENDBRANCH   1   2
END_RES LYS A 135
BEGIN_RES TYR A 136
REMARK  2 active torsions:
REMARK  status: ('A' for Active; 'I' for Inactive)
REMARK    5  A    between atoms: CA   and  CB  
REMARK    6  A    between atoms: CB   and  CG  
ROOT
ATOM      7  CA  TYR A 136      36.583  36.399   8.994  1.00 26.14     0.191 C 
ENDROOT
BRANCH   7   8
ATOM      8  CB  TYR A 136      37.367  36.835  10.240  1.00 28.16     0.060 C 
BRANCH   8   9
ATOM      9  CG  TYR A 136      37.197  38.302  10.549  1.00 31.88    -0.020 A 
ATOM     10  CD2 TYR A 136      38.208  39.223  10.264  1.00 32.67    -0.002 A 
ATOM     11  CE2 TYR A 136      38.040  40.584  10.556  1.00 33.89     0.027 A 
ATOM     12  CZ  TYR A 136      36.851  41.027  11.139  1.00 34.34     0.131 A 
ATOM     13  OH  TYR A 136      36.660  42.370  11.430  1.00 35.14    -0.190 OA
ATOM     14  CE1 TYR A 136      35.837  40.126  11.430  1.00 35.01     0.027 A 
ATOM     15  CD1 TYR A 136      36.017  38.772  11.140  1.00 33.57    -0.002 A 
ENDBRANCH   8   9
ENDBRANCH   7   8
END_RES TYR A 136
BEGIN_RES ASN A 133
REMARK  2 active torsions:
REMARK  status: ('A' for Active; 'I' for Inactive)
REMARK    7  A    between atoms: CA   and  CB  
REMARK    8  A    between atoms: CB   and  CG  
ROOT
ATOM     16  CA  ASN A 133      31.225  30.257  11.749  1.00 18.15     0.196 C 
ENDROOT
BRANCH  16  17
ATOM     17  CB  ASN A 133      30.092  31.240  11.460  1.00 18.27     0.126 C 
BRANCH  17  18
ATOM     18  CG  ASN A 133      28.748  30.586  11.376  1.00 18.94     0.276 C 
ATOM     19  OD1 ASN A 133      28.562  29.598  10.662  1.00 18.09    -0.269 OA
ATOM     20  ND2 ASN A 133      27.784  31.137  12.113  1.00 18.93    -0.107 N 
ENDBRANCH  17  18
ENDBRANCH  16  17
END_RES ASN A 133
