REMARK VINA RESULT:    -4.774      4.867      7.999
REMARK INTER + INTRA:          -8.105
REMARK INTER:                  -4.993
REMARK INTRA:                  -3.112
REMARK UNBOUND:                -3.051
REMARK SMILES Cc1cn(-c2c3ccccc3nc3ccccc23)nn1
REMARK SMILES IDX 5 1 6 2 7 3 8 4 9 5 10 6 11 7 12 8 13 9 14 10 15 11 16 12
REMARK SMILES IDX 17 13 18 14 4 15 1 16 2 17 3 18 20 19 19 20
REMARK H PARENT
REMARK Flexibility Score: inf
ROOT
ATOM      1  C   UNL     1      29.330  30.909  18.200  1.00  0.00     0.085 A 
ATOM      2  C   UNL     1      28.222  30.100  18.016  1.00  0.00     0.027 A 
ATOM      3  C   UNL     1      27.722  29.348  19.058  1.00  0.00     0.012 A 
ATOM      4  C   UNL     1      26.617  28.551  18.847  1.00  0.00     0.001 A 
ATOM      5  C   UNL     1      26.054  28.542  17.589  1.00  0.00     0.002 A 
ATOM      6  C   UNL     1      26.554  29.292  16.559  1.00  0.00     0.029 A 
ATOM      7  C   UNL     1      27.672  30.104  16.752  1.00  0.00     0.073 A 
ATOM      8  N   UNL     1      28.146  30.830  15.728  1.00  0.00    -0.248 NA
ATOM      9  C   UNL     1      29.240  31.630  15.903  1.00  0.00     0.073 A 
ATOM     10  C   UNL     1      29.734  32.382  14.854  1.00  0.00     0.029 A 
ATOM     11  C   UNL     1      30.840  33.168  15.094  1.00  0.00     0.002 A 
ATOM     12  C   UNL     1      31.443  33.214  16.337  1.00  0.00     0.001 A 
ATOM     13  C   UNL     1      30.941  32.469  17.355  1.00  0.00     0.012 A 
ATOM     14  C   UNL     1      29.838  31.675  17.140  1.00  0.00     0.027 A 
ENDROOT
BRANCH   1  15
ATOM     15  N   UNL     1      29.972  30.977  19.464  1.00  0.00    -0.219 N 
ATOM     16  C   UNL     1      32.348  29.971  22.072  1.00  0.00     0.070 C 
ATOM     17  C   UNL     1      31.294  30.581  21.185  1.00  0.00     0.080 A 
ATOM     18  C   UNL     1      30.950  30.184  19.913  1.00  0.00     0.140 A 
ATOM     19  N   UNL     1      30.506  31.621  21.489  1.00  0.00    -0.135 NA
ATOM     20  N   UNL     1      29.738  31.822  20.440  1.00  0.00    -0.062 NA
ENDBRANCH   1  15
TORSDOF 1
BEGIN_RES LYS A 135
REMARK  4 active torsions:
REMARK  status: ('A' for Active; 'I' for Inactive)
REMARK    1  A    between atoms: CA   and  CB  
REMARK    2  A    between atoms: CB   and  CG  
REMARK    3  A    between atoms: CG   and  CD  
REMARK    4  A    between atoms: CD   and  CE  
ROOT
ATOM      1  CA  LYS A 135      33.193  34.663   9.290  1.00 25.02     0.186 C 
ENDROOT
BRANCH   1   2
ATOM      2  CB  LYS A 135      32.060  35.360  10.034  1.00 26.63     0.034 C 
BRANCH   2   3
ATOM      3  CG  LYS A 135      30.825  35.564   9.196  1.00 29.45     0.005 C 
BRANCH   3   4
ATOM      4  CD  LYS A 135      30.205  34.228   8.819  1.00 32.00     0.041 C 
BRANCH   4   5
ATOM      5  CE  LYS A 135      28.717  34.383   8.566  1.00 34.25     0.338 C 
ATOM      6  NZ  LYS A 135      27.920  33.676   9.607  1.00 35.99     0.618 N 
ENDBRANCH   4   5
ENDBRANCH   3   4
ENDBRANCH   2   3
ENDBRANCH   1   2
END_RES LYS A 135
BEGIN_RES TYR A 136
REMARK  2 active torsions:
REMARK  status: ('A' for Active; 'I' for Inactive)
REMARK    5  A    between atoms: CA   and  CB  
REMARK    6  A    between atoms: CB   and  CG  
ROOT
ATOM      7  CA  TYR A 136      36.583  36.399   8.994  1.00 26.14     0.191 C 
ENDROOT
BRANCH   7   8
ATOM      8  CB  TYR A 136      37.367  36.835  10.240  1.00 28.16     0.060 C 
BRANCH   8   9
ATOM      9  CG  TYR A 136      37.230  38.310  10.525  1.00 31.88    -0.020 A 
ATOM     10  CD2 TYR A 136      37.840  38.892  11.639  1.00 32.67    -0.002 A 
ATOM     11  CE2 TYR A 136      37.706  40.263  11.895  1.00 33.89     0.027 A 
ATOM     12  CZ  TYR A 136      36.953  41.060  11.029  1.00 34.34     0.131 A 
ATOM     13  OH  TYR A 136      36.812  42.421  11.259  1.00 35.14    -0.190 OA
ATOM     14  CE1 TYR A 136      36.339  40.499   9.919  1.00 35.01     0.027 A 
ATOM     15  CD1 TYR A 136      36.475  39.131   9.677  1.00 33.57    -0.002 A 
ENDBRANCH   8   9
ENDBRANCH   7   8
END_RES TYR A 136
BEGIN_RES ASN A 133
REMARK  2 active torsions:
REMARK  status: ('A' for Active; 'I' for Inactive)
REMARK    7  A    between atoms: CA   and  CB  
REMARK    8  A    between atoms: CB   and  CG  
ROOT
ATOM     16  CA  ASN A 133      31.225  30.257  11.749  1.00 18.15     0.196 C 
ENDROOT
BRANCH  16  17
ATOM     17  CB  ASN A 133      30.092  31.240  11.460  1.00 18.27     0.126 C 
BRANCH  17  18
ATOM     18  CG  ASN A 133      28.752  30.582  11.350  1.00 18.94     0.276 C 
ATOM     19  OD1 ASN A 133      28.578  29.605  10.618  1.00 18.09    -0.269 OA
ATOM     20  ND2 ASN A 133      27.777  31.118  12.084  1.00 18.93    -0.107 N 
ENDBRANCH  17  18
ENDBRANCH  16  17
END_RES ASN A 133
