REMARK VINA RESULT:    -3.200      7.978     15.515
REMARK INTER + INTRA:          -6.537
REMARK INTER:                  -3.653
REMARK INTRA:                  -2.883
REMARK UNBOUND:                -3.149
REMARK SMILES Cc1cn(-c2ccncc2)nn1
REMARK SMILES IDX 1 1 2 2 3 3 4 4 11 5 12 6 5 7 6 8 10 9 7 10 9 11 8 12
REMARK H PARENT
REMARK Flexibility Score: inf
ROOT
ATOM      1  C   UNL     1      38.687  32.750  19.572  1.00  0.00     0.070 C 
ATOM      2  C   UNL     1      38.396  33.587  18.392  1.00  0.00     0.080 A 
ATOM      3  C   UNL     1      38.752  33.364  17.068  1.00  0.00     0.140 A 
ATOM      4  N   UNL     1      38.285  34.374  16.317  1.00  0.00    -0.220 N 
ATOM      5  N   UNL     1      37.658  35.199  17.139  1.00  0.00    -0.062 NA
ATOM      6  N   UNL     1      37.715  34.745  18.384  1.00  0.00    -0.135 NA
ENDROOT
BRANCH   4   7
ATOM      7  C   UNL     1      38.445  34.509  14.909  1.00  0.00     0.069 A 
ATOM      8  C   UNL     1      37.655  33.773  14.042  1.00  0.00     0.048 A 
ATOM      9  C   UNL     1      39.368  35.354  14.339  1.00  0.00     0.048 A 
ATOM     10  C   UNL     1      37.816  33.909  12.690  1.00  0.00     0.113 A 
ATOM     11  C   UNL     1      39.527  35.488  12.978  1.00  0.00     0.113 A 
ATOM     12  N   UNL     1      38.730  34.747  12.192  1.00  0.00    -0.265 NA
ENDBRANCH   4   7
TORSDOF 1
BEGIN_RES LYS A 135
REMARK  4 active torsions:
REMARK  status: ('A' for Active; 'I' for Inactive)
REMARK    1  A    between atoms: CA   and  CB  
REMARK    2  A    between atoms: CB   and  CG  
REMARK    3  A    between atoms: CG   and  CD  
REMARK    4  A    between atoms: CD   and  CE  
ROOT
ATOM      1  CA  LYS A 135      33.193  34.663   9.290  1.00 25.02     0.186 C 
ENDROOT
BRANCH   1   2
ATOM      2  CB  LYS A 135      32.060  35.360  10.034  1.00 26.63     0.034 C 
BRANCH   2   3
ATOM      3  CG  LYS A 135      30.856  35.641   9.172  1.00 29.45     0.005 C 
BRANCH   3   4
ATOM      4  CD  LYS A 135      30.349  34.361   8.526  1.00 32.00     0.041 C 
BRANCH   4   5
ATOM      5  CE  LYS A 135      28.843  34.253   8.670  1.00 34.25     0.338 C 
ATOM      6  NZ  LYS A 135      28.440  34.241  10.104  1.00 35.99     0.618 N 
ENDBRANCH   4   5
ENDBRANCH   3   4
ENDBRANCH   2   3
ENDBRANCH   1   2
END_RES LYS A 135
BEGIN_RES TYR A 136
REMARK  2 active torsions:
REMARK  status: ('A' for Active; 'I' for Inactive)
REMARK    5  A    between atoms: CA   and  CB  
REMARK    6  A    between atoms: CB   and  CG  
ROOT
ATOM      7  CA  TYR A 136      36.583  36.399   8.994  1.00 26.14     0.191 C 
ENDROOT
BRANCH   7   8
ATOM      8  CB  TYR A 136      37.367  36.835  10.240  1.00 28.16     0.060 C 
BRANCH   8   9
ATOM      9  CG  TYR A 136      36.597  37.808  11.099  1.00 31.88    -0.020 A 
ATOM     10  CD2 TYR A 136      36.037  38.966  10.555  1.00 32.67    -0.002 A 
ATOM     11  CE2 TYR A 136      35.325  39.865  11.362  1.00 33.89     0.027 A 
ATOM     12  CZ  TYR A 136      35.173  39.602  12.725  1.00 34.34     0.131 A 
ATOM     13  OH  TYR A 136      34.466  40.474  13.542  1.00 35.14    -0.190 OA
ATOM     14  CE1 TYR A 136      35.724  38.457  13.282  1.00 35.01     0.027 A 
ATOM     15  CD1 TYR A 136      36.436  37.573  12.470  1.00 33.57    -0.002 A 
ENDBRANCH   8   9
ENDBRANCH   7   8
END_RES TYR A 136
BEGIN_RES ASN A 133
REMARK  2 active torsions:
REMARK  status: ('A' for Active; 'I' for Inactive)
REMARK    7  A    between atoms: CA   and  CB  
REMARK    8  A    between atoms: CB   and  CG  
ROOT
ATOM     16  CA  ASN A 133      31.225  30.257  11.749  1.00 18.15     0.196 C 
ENDROOT
BRANCH  16  17
ATOM     17  CB  ASN A 133      30.092  31.240  11.460  1.00 18.27     0.126 C 
BRANCH  17  18
ATOM     18  CG  ASN A 133      28.759  30.577  11.304  1.00 18.94     0.276 C 
ATOM     19  OD1 ASN A 133      28.615  29.598  10.569  1.00 18.09    -0.269 OA
ATOM     20  ND2 ASN A 133      27.757  31.111  12.002  1.00 18.93    -0.107 N 
ENDBRANCH  17  18
ENDBRANCH  16  17
END_RES ASN A 133
