REMARK VINA RESULT:    -3.168      7.398     12.360
REMARK INTER + INTRA:          -6.603
REMARK INTER:                  -3.257
REMARK INTRA:                  -3.347
REMARK UNBOUND:                -2.973
REMARK SMILES Cc1cn(CCO)nn1
REMARK SMILES IDX 5 1 4 2 1 3 2 4 3 5 9 6 8 7 6 8 7 9
REMARK H PARENT 7 10
REMARK Flexibility Score: inf
ROOT
ATOM      1  C   UNL     1      22.866  35.976  -2.540  1.00  0.00     0.174 C 
ENDROOT
BRANCH   1   2
ATOM      2  N   UNL     1      22.866  35.302  -1.259  1.00  0.00    -0.250 N 
ATOM      3  C   UNL     1      22.551  32.238   0.720  1.00  0.00     0.070 C 
ATOM      4  C   UNL     1      22.720  33.609   0.167  1.00  0.00     0.080 A 
ATOM      5  C   UNL     1      22.667  33.975  -1.161  1.00  0.00     0.134 A 
ATOM      6  N   UNL     1      22.955  34.766   0.816  1.00  0.00    -0.136 NA
ATOM      7  N   UNL     1      23.037  35.757  -0.053  1.00  0.00    -0.067 NA
ENDBRANCH   1   2
BRANCH   1   8
ATOM      8  C   UNL     1      24.111  36.807  -2.742  1.00  0.00     0.179 C 
BRANCH   8   9
ATOM      9  O   UNL     1      25.204  36.208  -2.089  1.00  0.00    -0.394 OA
ATOM     10  H   UNL     1      25.551  36.864  -1.432  1.00  0.00     0.210 HD
ENDBRANCH   8   9
ENDBRANCH   1   8
TORSDOF 3
BEGIN_RES LYS A 135
REMARK  4 active torsions:
REMARK  status: ('A' for Active; 'I' for Inactive)
REMARK    1  A    between atoms: CA   and  CB  
REMARK    2  A    between atoms: CB   and  CG  
REMARK    3  A    between atoms: CG   and  CD  
REMARK    4  A    between atoms: CD   and  CE  
ROOT
ATOM      1  CA  LYS A 135      33.193  34.663   9.290  1.00 25.02     0.186 C 
ENDROOT
BRANCH   1   2
ATOM      2  CB  LYS A 135      32.060  35.360  10.034  1.00 26.63     0.034 C 
BRANCH   2   3
ATOM      3  CG  LYS A 135      30.701  34.774   9.748  1.00 29.45     0.005 C 
BRANCH   3   4
ATOM      4  CD  LYS A 135      30.531  34.515   8.259  1.00 32.00     0.041 C 
BRANCH   4   5
ATOM      5  CE  LYS A 135      29.135  34.900   7.808  1.00 34.25     0.338 C 
ATOM      6  NZ  LYS A 135      28.103  34.355   8.733  1.00 35.99     0.618 N 
ENDBRANCH   4   5
ENDBRANCH   3   4
ENDBRANCH   2   3
ENDBRANCH   1   2
END_RES LYS A 135
BEGIN_RES TYR A 136
REMARK  2 active torsions:
REMARK  status: ('A' for Active; 'I' for Inactive)
REMARK    5  A    between atoms: CA   and  CB  
REMARK    6  A    between atoms: CB   and  CG  
ROOT
ATOM      7  CA  TYR A 136      36.583  36.399   8.994  1.00 26.14     0.191 C 
ENDROOT
BRANCH   7   8
ATOM      8  CB  TYR A 136      37.367  36.835  10.240  1.00 28.16     0.060 C 
BRANCH   8   9
ATOM      9  CG  TYR A 136      37.095  38.268  10.625  1.00 31.88    -0.020 A 
ATOM     10  CD2 TYR A 136      37.387  38.741  11.906  1.00 32.67    -0.002 A 
ATOM     11  CE2 TYR A 136      37.129  40.074  12.254  1.00 33.89     0.027 A 
ATOM     12  CZ  TYR A 136      36.572  40.942  11.311  1.00 34.34     0.131 A 
ATOM     13  OH  TYR A 136      36.315  42.268  11.631  1.00 35.14    -0.190 OA
ATOM     14  CE1 TYR A 136      36.275  40.489  10.033  1.00 35.01     0.027 A 
ATOM     15  CD1 TYR A 136      36.531  39.158   9.701  1.00 33.57    -0.002 A 
ENDBRANCH   8   9
ENDBRANCH   7   8
END_RES TYR A 136
BEGIN_RES ASN A 133
REMARK  2 active torsions:
REMARK  status: ('A' for Active; 'I' for Inactive)
REMARK    7  A    between atoms: CA   and  CB  
REMARK    8  A    between atoms: CB   and  CG  
ROOT
ATOM     16  CA  ASN A 133      31.225  30.257  11.749  1.00 18.15     0.196 C 
ENDROOT
BRANCH  16  17
ATOM     17  CB  ASN A 133      30.092  31.240  11.460  1.00 18.27     0.126 C 
BRANCH  17  18
ATOM     18  CG  ASN A 133      28.750  30.583  11.361  1.00 18.94     0.276 C 
ATOM     19  OD1 ASN A 133      28.573  29.599  10.641  1.00 18.09    -0.269 OA
ATOM     20  ND2 ASN A 133      27.778  31.130  12.091  1.00 18.93    -0.107 N 
ENDBRANCH  17  18
ENDBRANCH  16  17
END_RES ASN A 133
