REMARK VINA RESULT:    -4.970      3.339      5.894
REMARK INTER + INTRA:         -10.671
REMARK INTER:                  -6.976
REMARK INTRA:                  -3.694
REMARK UNBOUND:                -3.812
REMARK SMILES Cc1cn(C[C@@H](C(=O)O)C(c2ccccc2)c2ccccc2)nn1
REMARK SMILES IDX 6 1 5 2 4 3 1 4 2 5 3 6 24 7 23 8 7 9 8 10 9 11 10 13 11 14
REMARK SMILES IDX 12 15 16 16 13 17 15 18 14 19 17 20 18 21 22 22 19 23 21 24
REMARK SMILES IDX 20 25
REMARK H PARENT 9 12
REMARK Flexibility Score: inf
ROOT
ATOM      1  C   UNL     1      37.816  35.034  13.775  1.00  0.00     0.132 C 
ENDROOT
BRANCH   1   2
ATOM      2  C   UNL     1      36.633  35.757  13.220  1.00  0.00     0.162 C 
BRANCH   2   3
ATOM      3  N   UNL     1      35.472  35.593  14.062  1.00  0.00    -0.251 N 
ATOM      4  C   UNL     1      32.173  34.256  14.889  1.00  0.00     0.070 C 
ATOM      5  C   UNL     1      33.514  34.896  14.737  1.00  0.00     0.080 A 
ATOM      6  C   UNL     1      34.399  34.831  13.712  1.00  0.00     0.134 A 
ATOM      7  N   UNL     1      34.057  35.687  15.681  1.00  0.00    -0.136 NA
ATOM      8  N   UNL     1      35.225  36.093  15.261  1.00  0.00    -0.067 NA
ENDBRANCH   2   3
ENDBRANCH   1   2
BRANCH   1   9
ATOM      9  C   UNL     1      37.828  33.630  13.362  1.00  0.00     0.309 C 
ATOM     10  O   UNL     1      37.789  33.356  12.130  1.00  0.00    -0.252 OA
BRANCH   9  11
ATOM     11  O   UNL     1      37.884  32.585  14.297  1.00  0.00    -0.481 OA
ATOM     12  H   UNL     1      37.090  32.506  14.949  1.00  0.00     0.296 HD
ENDBRANCH   9  11
ENDBRANCH   1   9
BRANCH   1  13
ATOM     13  C   UNL     1      39.091  35.690  13.250  1.00  0.00     0.065 C 
BRANCH  13  14
ATOM     14  C   UNL     1      39.116  37.156  13.507  1.00  0.00    -0.040 A 
ATOM     15  C   UNL     1      38.340  37.788  14.449  1.00  0.00     0.004 A 
ATOM     16  C   UNL     1      39.990  37.913  12.733  1.00  0.00     0.004 A 
ATOM     17  C   UNL     1      38.443  39.161  14.606  1.00  0.00     0.000 A 
ATOM     18  C   UNL     1      40.071  39.284  12.913  1.00  0.00     0.000 A 
ATOM     19  C   UNL     1      39.301  39.910  13.846  1.00  0.00     0.000 A 
ENDBRANCH  13  14
BRANCH  13  20
ATOM     20  C   UNL     1      40.273  35.031  13.856  1.00  0.00    -0.040 A 
ATOM     21  C   UNL     1      41.222  34.421  13.059  1.00  0.00     0.004 A 
ATOM     22  C   UNL     1      40.471  35.015  15.218  1.00  0.00     0.004 A 
ATOM     23  C   UNL     1      42.347  33.801  13.545  1.00  0.00     0.000 A 
ATOM     24  C   UNL     1      41.600  34.397  15.739  1.00  0.00     0.000 A 
ATOM     25  C   UNL     1      42.511  33.806  14.924  1.00  0.00     0.000 A 
ENDBRANCH  13  20
ENDBRANCH   1  13
TORSDOF 7
BEGIN_RES LYS A 135
REMARK  4 active torsions:
REMARK  status: ('A' for Active; 'I' for Inactive)
REMARK    1  A    between atoms: CA   and  CB  
REMARK    2  A    between atoms: CB   and  CG  
REMARK    3  A    between atoms: CG   and  CD  
REMARK    4  A    between atoms: CD   and  CE  
ROOT
ATOM      1  CA  LYS A 135      33.193  34.663   9.290  1.00 25.02     0.186 C 
ENDROOT
BRANCH   1   2
ATOM      2  CB  LYS A 135      32.060  35.360  10.034  1.00 26.63     0.034 C 
BRANCH   2   3
ATOM      3  CG  LYS A 135      30.787  35.462   9.234  1.00 29.45     0.005 C 
BRANCH   3   4
ATOM      4  CD  LYS A 135      30.226  34.079   8.941  1.00 32.00     0.041 C 
BRANCH   4   5
ATOM      5  CE  LYS A 135      28.740  34.033   9.241  1.00 34.25     0.338 C 
ATOM      6  NZ  LYS A 135      28.465  34.420  10.653  1.00 35.99     0.618 N 
ENDBRANCH   4   5
ENDBRANCH   3   4
ENDBRANCH   2   3
ENDBRANCH   1   2
END_RES LYS A 135
BEGIN_RES TYR A 136
REMARK  2 active torsions:
REMARK  status: ('A' for Active; 'I' for Inactive)
REMARK    5  A    between atoms: CA   and  CB  
REMARK    6  A    between atoms: CB   and  CG  
ROOT
ATOM      7  CA  TYR A 136      36.583  36.399   8.994  1.00 26.14     0.191 C 
ENDROOT
BRANCH   7   8
ATOM      8  CB  TYR A 136      37.367  36.835  10.240  1.00 28.16     0.060 C 
BRANCH   8   9
ATOM      9  CG  TYR A 136      37.281  38.321  10.489  1.00 31.88    -0.020 A 
ATOM     10  CD2 TYR A 136      38.092  39.219   9.793  1.00 32.67    -0.002 A 
ATOM     11  CE2 TYR A 136      38.006  40.597  10.033  1.00 33.89     0.027 A 
ATOM     12  CZ  TYR A 136      37.099  41.081  10.979  1.00 34.34     0.131 A 
ATOM     13  OH  TYR A 136      36.991  42.442  11.228  1.00 35.14    -0.190 OA
ATOM     14  CE1 TYR A 136      36.286  40.203  11.681  1.00 35.01     0.027 A 
ATOM     15  CD1 TYR A 136      36.386  38.832  11.438  1.00 33.57    -0.002 A 
ENDBRANCH   8   9
ENDBRANCH   7   8
END_RES TYR A 136
BEGIN_RES ASN A 133
REMARK  2 active torsions:
REMARK  status: ('A' for Active; 'I' for Inactive)
REMARK    7  A    between atoms: CA   and  CB  
REMARK    8  A    between atoms: CB   and  CG  
ROOT
ATOM     16  CA  ASN A 133      31.225  30.257  11.749  1.00 18.15     0.196 C 
ENDROOT
BRANCH  16  17
ATOM     17  CB  ASN A 133      30.092  31.240  11.460  1.00 18.27     0.126 C 
BRANCH  17  18
ATOM     18  CG  ASN A 133      28.753  30.581  11.342  1.00 18.94     0.276 C 
ATOM     19  OD1 ASN A 133      28.588  29.594  10.623  1.00 18.09    -0.269 OA
ATOM     20  ND2 ASN A 133      27.769  31.129  12.054  1.00 18.93    -0.107 N 
ENDBRANCH  17  18
ENDBRANCH  16  17
END_RES ASN A 133
