REMARK VINA RESULT:    -4.322      2.895      3.827
REMARK INTER + INTRA:          -9.516
REMARK INTER:                  -5.573
REMARK INTRA:                  -3.943
REMARK UNBOUND:                -3.551
REMARK SMILES Cc1cn(C[C@H](CC(=O)O)CC(C)C)nn1
REMARK SMILES IDX 7 1 6 2 5 3 4 4 1 5 2 6 3 7 16 8 15 9 11 10 12 11 13 12
REMARK SMILES IDX 14 13 8 14 9 15 10 16
REMARK H PARENT 10 17
REMARK Flexibility Score: inf
ROOT
ATOM      1  C   UNL     1      35.306  35.675  14.630  1.00  0.00     0.128 C 
ENDROOT
BRANCH   1   2
ATOM      2  C   UNL     1      33.908  36.188  14.783  1.00  0.00     0.022 C 
BRANCH   2   3
ATOM      3  C   UNL     1      33.164  35.642  15.970  1.00  0.00     0.150 C 
BRANCH   3   4
ATOM      4  N   UNL     1      32.254  34.569  15.590  1.00  0.00    -0.252 N 
ATOM      5  C   UNL     1      30.350  31.545  16.209  1.00  0.00     0.070 C 
ATOM      6  C   UNL     1      31.016  32.763  15.703  1.00  0.00     0.080 A 
ATOM      7  C   UNL     1      31.883  33.587  16.424  1.00  0.00     0.134 A 
ATOM      8  N   UNL     1      30.913  33.289  14.484  1.00  0.00    -0.136 NA
ATOM      9  N   UNL     1      31.661  34.377  14.422  1.00  0.00    -0.067 NA
ENDBRANCH   3   4
ENDBRANCH   2   3
BRANCH   2  10
ATOM     10  C   UNL     1      33.638  37.551  14.347  1.00  0.00     0.009 C 
BRANCH  10  11
ATOM     11  C   UNL     1      32.942  37.912  13.117  1.00  0.00    -0.017 C 
ATOM     12  C   UNL     1      31.427  37.913  13.494  1.00  0.00     0.007 C 
ATOM     13  C   UNL     1      33.002  36.922  11.976  1.00  0.00     0.007 C 
ENDBRANCH  10  11
ENDBRANCH   2  10
ENDBRANCH   1   2
BRANCH   1  14
ATOM     14  C   UNL     1      35.579  34.749  13.555  1.00  0.00     0.303 C 
ATOM     15  O   UNL     1      36.649  34.736  12.930  1.00  0.00    -0.252 OA
BRANCH  14  16
ATOM     16  O   UNL     1      34.608  33.828  13.196  1.00  0.00    -0.481 OA
ATOM     17  H   UNL     1      34.788  32.844  13.086  1.00  0.00     0.296 HD
ENDBRANCH  14  16
ENDBRANCH   1  14
TORSDOF 7
BEGIN_RES LYS A 135
REMARK  4 active torsions:
REMARK  status: ('A' for Active; 'I' for Inactive)
REMARK    1  A    between atoms: CA   and  CB  
REMARK    2  A    between atoms: CB   and  CG  
REMARK    3  A    between atoms: CG   and  CD  
REMARK    4  A    between atoms: CD   and  CE  
ROOT
ATOM      1  CA  LYS A 135      33.193  34.663   9.290  1.00 25.02     0.186 C 
ENDROOT
BRANCH   1   2
ATOM      2  CB  LYS A 135      32.060  35.360  10.034  1.00 26.63     0.034 C 
BRANCH   2   3
ATOM      3  CG  LYS A 135      30.698  34.797   9.721  1.00 29.45     0.005 C 
BRANCH   3   4
ATOM      4  CD  LYS A 135      30.592  34.434   8.248  1.00 32.00     0.041 C 
BRANCH   4   5
ATOM      5  CE  LYS A 135      29.385  35.103   7.619  1.00 34.25     0.338 C 
ATOM      6  NZ  LYS A 135      28.123  34.649   8.267  1.00 35.99     0.618 N 
ENDBRANCH   4   5
ENDBRANCH   3   4
ENDBRANCH   2   3
ENDBRANCH   1   2
END_RES LYS A 135
BEGIN_RES TYR A 136
REMARK  2 active torsions:
REMARK  status: ('A' for Active; 'I' for Inactive)
REMARK    5  A    between atoms: CA   and  CB  
REMARK    6  A    between atoms: CB   and  CG  
ROOT
ATOM      7  CA  TYR A 136      36.583  36.399   8.994  1.00 26.14     0.191 C 
ENDROOT
BRANCH   7   8
ATOM      8  CB  TYR A 136      37.367  36.835  10.240  1.00 28.16     0.060 C 
BRANCH   8   9
ATOM      9  CG  TYR A 136      36.742  38.021  10.933  1.00 31.88    -0.020 A 
ATOM     10  CD2 TYR A 136      35.911  38.906  10.243  1.00 32.67    -0.002 A 
ATOM     11  CE2 TYR A 136      35.337  40.006  10.896  1.00 33.89     0.027 A 
ATOM     12  CZ  TYR A 136      35.598  40.222  12.251  1.00 34.34     0.131 A 
ATOM     13  OH  TYR A 136      35.035  41.300  12.920  1.00 35.14    -0.190 OA
ATOM     14  CE1 TYR A 136      36.422  39.353  12.952  1.00 35.01     0.027 A 
ATOM     15  CD1 TYR A 136      36.993  38.265  12.289  1.00 33.57    -0.002 A 
ENDBRANCH   8   9
ENDBRANCH   7   8
END_RES TYR A 136
BEGIN_RES ASN A 133
REMARK  2 active torsions:
REMARK  status: ('A' for Active; 'I' for Inactive)
REMARK    7  A    between atoms: CA   and  CB  
REMARK    8  A    between atoms: CB   and  CG  
ROOT
ATOM     16  CA  ASN A 133      31.225  30.257  11.749  1.00 18.15     0.196 C 
ENDROOT
BRANCH  16  17
ATOM     17  CB  ASN A 133      30.092  31.240  11.460  1.00 18.27     0.126 C 
BRANCH  17  18
ATOM     18  CG  ASN A 133      28.749  30.584  11.367  1.00 18.94     0.276 C 
ATOM     19  OD1 ASN A 133      28.569  29.597  10.651  1.00 18.09    -0.269 OA
ATOM     20  ND2 ASN A 133      27.780  31.135  12.096  1.00 18.93    -0.107 N 
ENDBRANCH  17  18
ENDBRANCH  16  17
END_RES ASN A 133
