REMARK VINA RESULT:    -3.063      7.869     12.444
REMARK INTER + INTRA:          -6.392
REMARK INTER:                  -3.472
REMARK INTRA:                  -2.920
REMARK UNBOUND:                -3.149
REMARK SMILES Cc1cn(-c2ccncc2)nn1
REMARK SMILES IDX 1 1 2 2 3 3 4 4 11 5 12 6 5 7 6 8 10 9 7 10 9 11 8 12
REMARK H PARENT
REMARK Flexibility Score: inf
ROOT
ATOM      1  C   UNL     1      35.152  38.476   2.385  1.00  0.00     0.070 C 
ATOM      2  C   UNL     1      36.553  38.018   2.462  1.00  0.00     0.080 A 
ATOM      3  C   UNL     1      37.339  37.832   3.592  1.00  0.00     0.140 A 
ATOM      4  N   UNL     1      38.553  37.406   3.212  1.00  0.00    -0.220 N 
ATOM      5  N   UNL     1      38.530  37.325   1.892  1.00  0.00    -0.062 NA
ATOM      6  N   UNL     1      37.343  37.688   1.426  1.00  0.00    -0.135 NA
ENDROOT
BRANCH   4   7
ATOM      7  C   UNL     1      39.640  37.103   4.080  1.00  0.00     0.069 A 
ATOM      8  C   UNL     1      40.092  35.800   4.207  1.00  0.00     0.048 A 
ATOM      9  C   UNL     1      40.289  38.057   4.826  1.00  0.00     0.048 A 
ATOM     10  C   UNL     1      41.137  35.518   5.043  1.00  0.00     0.113 A 
ATOM     11  C   UNL     1      41.341  37.771   5.667  1.00  0.00     0.113 A 
ATOM     12  N   UNL     1      41.731  36.488   5.744  1.00  0.00    -0.265 NA
ENDBRANCH   4   7
TORSDOF 1
BEGIN_RES LYS A 135
REMARK  4 active torsions:
REMARK  status: ('A' for Active; 'I' for Inactive)
REMARK    1  A    between atoms: CA   and  CB  
REMARK    2  A    between atoms: CB   and  CG  
REMARK    3  A    between atoms: CG   and  CD  
REMARK    4  A    between atoms: CD   and  CE  
ROOT
ATOM      1  CA  LYS A 135      33.193  34.663   9.290  1.00 25.02     0.186 C 
ENDROOT
BRANCH   1   2
ATOM      2  CB  LYS A 135      32.060  35.360  10.034  1.00 26.63     0.034 C 
BRANCH   2   3
ATOM      3  CG  LYS A 135      30.855  35.639   9.173  1.00 29.45     0.005 C 
BRANCH   3   4
ATOM      4  CD  LYS A 135      30.326  34.352   8.557  1.00 32.00     0.041 C 
BRANCH   4   5
ATOM      5  CE  LYS A 135      28.961  34.013   9.123  1.00 34.25     0.338 C 
ATOM      6  NZ  LYS A 135      28.042  35.182   9.044  1.00 35.99     0.618 N 
ENDBRANCH   4   5
ENDBRANCH   3   4
ENDBRANCH   2   3
ENDBRANCH   1   2
END_RES LYS A 135
BEGIN_RES TYR A 136
REMARK  2 active torsions:
REMARK  status: ('A' for Active; 'I' for Inactive)
REMARK    5  A    between atoms: CA   and  CB  
REMARK    6  A    between atoms: CB   and  CG  
ROOT
ATOM      7  CA  TYR A 136      36.583  36.399   8.994  1.00 26.14     0.191 C 
ENDROOT
BRANCH   7   8
ATOM      8  CB  TYR A 136      37.367  36.835  10.240  1.00 28.16     0.060 C 
BRANCH   8   9
ATOM      9  CG  TYR A 136      37.339  38.329  10.449  1.00 31.88    -0.020 A 
ATOM     10  CD2 TYR A 136      38.396  39.138  10.026  1.00 32.67    -0.002 A 
ATOM     11  CE2 TYR A 136      38.361  40.525  10.227  1.00 33.89     0.027 A 
ATOM     12  CZ  TYR A 136      37.259  41.107  10.858  1.00 34.34     0.131 A 
ATOM     13  OH  TYR A 136      37.200  42.479  11.061  1.00 35.14    -0.190 OA
ATOM     14  CE1 TYR A 136      36.202  40.318  11.286  1.00 35.01     0.027 A 
ATOM     15  CD1 TYR A 136      36.250  38.938  11.086  1.00 33.57    -0.002 A 
ENDBRANCH   8   9
ENDBRANCH   7   8
END_RES TYR A 136
BEGIN_RES ASN A 133
REMARK  2 active torsions:
REMARK  status: ('A' for Active; 'I' for Inactive)
REMARK    7  A    between atoms: CA   and  CB  
REMARK    8  A    between atoms: CB   and  CG  
ROOT
ATOM     16  CA  ASN A 133      31.225  30.257  11.749  1.00 18.15     0.196 C 
ENDROOT
BRANCH  16  17
ATOM     17  CB  ASN A 133      30.092  31.240  11.460  1.00 18.27     0.126 C 
BRANCH  17  18
ATOM     18  CG  ASN A 133      28.750  30.583  11.359  1.00 18.94     0.276 C 
ATOM     19  OD1 ASN A 133      28.576  29.593  10.646  1.00 18.09    -0.269 OA
ATOM     20  ND2 ASN A 133      27.775  31.136  12.080  1.00 18.93    -0.107 N 
ENDBRANCH  17  18
ENDBRANCH  16  17
END_RES ASN A 133
