REMARK VINA RESULT:    -5.245      0.000      0.000
REMARK INTER + INTRA:          -9.427
REMARK INTER:                  -6.331
REMARK INTRA:                  -3.096
REMARK UNBOUND:                -3.109
REMARK SMILES Cc1cn(Cc2ccc(C(=O)O)cc2)nn1
REMARK SMILES IDX 6 1 7 2 8 3 9 4 13 5 14 6 5 7 4 8 1 9 2 10 3 11 16 12 15 13
REMARK SMILES IDX 10 14 11 15 12 16
REMARK H PARENT 12 17
REMARK Flexibility Score: inf
ROOT
ATOM      1  C   UNL     1      34.872  35.470  14.222  1.00  0.00    -0.026 A 
ATOM      2  C   UNL     1      35.032  34.774  13.050  1.00  0.00     0.006 A 
ATOM      3  C   UNL     1      36.267  34.250  12.742  1.00  0.00     0.016 A 
ATOM      4  C   UNL     1      37.371  34.387  13.555  1.00  0.00     0.059 A 
ATOM      5  C   UNL     1      37.159  35.096  14.724  1.00  0.00     0.016 A 
ATOM      6  C   UNL     1      35.937  35.631  15.061  1.00  0.00     0.006 A 
ENDROOT
BRANCH   1   7
ATOM      7  C   UNL     1      33.553  36.055  14.601  1.00  0.00     0.181 C 
BRANCH   7   8
ATOM      8  N   UNL     1      32.826  35.080  15.398  1.00  0.00    -0.248 N 
ATOM      9  C   UNL     1      30.858  32.019  15.963  1.00  0.00     0.070 C 
ATOM     10  C   UNL     1      31.632  33.283  15.963  1.00  0.00     0.080 A 
ATOM     11  C   UNL     1      32.216  33.960  14.925  1.00  0.00     0.134 A 
ATOM     12  N   UNL     1      31.903  34.015  17.063  1.00  0.00    -0.136 NA
ATOM     13  N   UNL     1      32.613  35.078  16.703  1.00  0.00    -0.067 NA
ENDBRANCH   7   8
ENDBRANCH   1   7
BRANCH   4  14
ATOM     14  C   UNL     1      38.668  33.824  13.207  1.00  0.00     0.335 C 
ATOM     15  O   UNL     1      39.689  34.420  13.628  1.00  0.00    -0.246 OA
BRANCH  14  16
ATOM     16  O   UNL     1      38.828  32.692  12.453  1.00  0.00    -0.478 OA
ATOM     17  H   UNL     1      38.628  31.747  12.786  1.00  0.00     0.297 HD
ENDBRANCH  14  16
ENDBRANCH   4  14
TORSDOF 4
BEGIN_RES LYS A 135
REMARK  4 active torsions:
REMARK  status: ('A' for Active; 'I' for Inactive)
REMARK    1  A    between atoms: CA   and  CB  
REMARK    2  A    between atoms: CB   and  CG  
REMARK    3  A    between atoms: CG   and  CD  
REMARK    4  A    between atoms: CD   and  CE  
ROOT
ATOM      1  CA  LYS A 135      33.193  34.663   9.290  1.00 25.02     0.186 C 
ENDROOT
BRANCH   1   2
ATOM      2  CB  LYS A 135      32.060  35.360  10.034  1.00 26.63     0.034 C 
BRANCH   2   3
ATOM      3  CG  LYS A 135      30.827  35.569   9.194  1.00 29.45     0.005 C 
BRANCH   3   4
ATOM      4  CD  LYS A 135      30.227  34.235   8.778  1.00 32.00     0.041 C 
BRANCH   4   5
ATOM      5  CE  LYS A 135      28.725  34.356   8.609  1.00 34.25     0.338 C 
ATOM      6  NZ  LYS A 135      28.003  33.670   9.716  1.00 35.99     0.618 N 
ENDBRANCH   4   5
ENDBRANCH   3   4
ENDBRANCH   2   3
ENDBRANCH   1   2
END_RES LYS A 135
BEGIN_RES TYR A 136
REMARK  2 active torsions:
REMARK  status: ('A' for Active; 'I' for Inactive)
REMARK    5  A    between atoms: CA   and  CB  
REMARK    6  A    between atoms: CB   and  CG  
ROOT
ATOM      7  CA  TYR A 136      36.583  36.399   8.994  1.00 26.14     0.191 C 
ENDROOT
BRANCH   7   8
ATOM      8  CB  TYR A 136      37.367  36.835  10.240  1.00 28.16     0.060 C 
BRANCH   8   9
ATOM      9  CG  TYR A 136      36.649  37.898  11.035  1.00 31.88    -0.020 A 
ATOM     10  CD2 TYR A 136      36.839  38.022  12.413  1.00 32.67    -0.002 A 
ATOM     11  CE2 TYR A 136      36.166  39.011  13.143  1.00 33.89     0.027 A 
ATOM     12  CZ  TYR A 136      35.294  39.884  12.487  1.00 34.34     0.131 A 
ATOM     13  OH  TYR A 136      34.622  40.876  13.188  1.00 35.14    -0.190 OA
ATOM     14  CE1 TYR A 136      35.092  39.774  11.119  1.00 35.01     0.027 A 
ATOM     15  CD1 TYR A 136      35.763  38.781  10.404  1.00 33.57    -0.002 A 
ENDBRANCH   8   9
ENDBRANCH   7   8
END_RES TYR A 136
BEGIN_RES ASN A 133
REMARK  2 active torsions:
REMARK  status: ('A' for Active; 'I' for Inactive)
REMARK    7  A    between atoms: CA   and  CB  
REMARK    8  A    between atoms: CB   and  CG  
ROOT
ATOM     16  CA  ASN A 133      31.225  30.257  11.749  1.00 18.15     0.196 C 
ENDROOT
BRANCH  16  17
ATOM     17  CB  ASN A 133      30.092  31.240  11.460  1.00 18.27     0.126 C 
BRANCH  17  18
ATOM     18  CG  ASN A 133      28.744  30.591  11.409  1.00 18.94     0.276 C 
ATOM     19  OD1 ASN A 133      28.510  29.665  10.629  1.00 18.09    -0.269 OA
ATOM     20  ND2 ASN A 133      27.831  31.076  12.249  1.00 18.93    -0.107 N 
ENDBRANCH  17  18
ENDBRANCH  16  17
END_RES ASN A 133
