REMARK VINA RESULT:    -3.727      4.234      6.597
REMARK INTER + INTRA:          -9.623
REMARK INTER:                  -5.361
REMARK INTRA:                  -4.262
REMARK UNBOUND:                -4.262
REMARK SMILES Cc1cn(CC(=O)NCC(O)Cn2ccnc2[N+](=O)[O-])nn1
REMARK SMILES IDX 9 1 8 2 6 3 7 4 5 6 4 7 1 8 2 9 3 10 22 11 21 12 10 13 11 14
REMARK SMILES IDX 12 16 13 17 14 18 17 19 15 20 16 21 18 22 19 23 20 24
REMARK H PARENT 8 5 11 15
REMARK Flexibility Score: inf
ROOT
ATOM      1  C   UNL     1      28.602  30.278  15.803  1.00  0.00     0.151 C 
ENDROOT
BRANCH   1   2
ATOM      2  N   UNL     1      28.244  29.423  16.910  1.00  0.00    -0.352 N 
ATOM      3  C   UNL     1      27.270  29.717  17.900  1.00  0.00     0.241 C 
ATOM      4  O   UNL     1      26.642  30.795  17.840  1.00  0.00    -0.273 OA
ATOM      5  H   UNL     1      28.762  28.487  16.988  1.00  0.00     0.163 HD
BRANCH   3   6
ATOM      6  C   UNL     1      27.044  28.712  18.976  1.00  0.00     0.245 C 
BRANCH   6   7
ATOM      7  N   UNL     1      28.242  28.499  19.738  1.00  0.00    -0.243 N 
ATOM      8  C   UNL     1      30.669  26.757  21.840  1.00  0.00     0.070 C 
ATOM      9  C   UNL     1      29.842  27.665  20.990  1.00  0.00     0.080 A 
ATOM     10  C   UNL     1      28.625  27.404  20.419  1.00  0.00     0.134 A 
ATOM     11  N   UNL     1      30.176  28.919  20.643  1.00  0.00    -0.136 NA
ATOM     12  N   UNL     1      29.198  29.402  19.889  1.00  0.00    -0.067 NA
ENDBRANCH   6   7
ENDBRANCH   3   6
ENDBRANCH   1   2
BRANCH   1  13
ATOM     13  C   UNL     1      29.746  31.178  16.044  1.00  0.00     0.168 C 
BRANCH  13  14
ATOM     14  O   UNL     1      30.527  30.867  17.163  1.00  0.00    -0.388 OA
ATOM     15  H   UNL     1      30.286  31.385  17.945  1.00  0.00     0.211 HD
ENDBRANCH  13  14
BRANCH  13  16
ATOM     16  C   UNL     1      29.460  32.650  16.101  1.00  0.00     0.239 C 
BRANCH  16  17
ATOM     17  N   UNL     1      29.191  33.281  14.846  1.00  0.00    -0.227 N 
ATOM     18  C   UNL     1      30.139  33.590  13.896  1.00  0.00     0.204 A 
ATOM     19  C   UNL     1      27.988  33.704  14.440  1.00  0.00     0.434 A 
ATOM     20  C   UNL     1      29.474  34.226  12.880  1.00  0.00     0.245 A 
ATOM     21  N   UNL     1      28.192  34.294  13.205  1.00  0.00    -0.074 NA
BRANCH  19  22
ATOM     22  N   UNL     1      26.698  33.607  15.037  1.00  0.00    -0.047 N 
ATOM     23  O   UNL     1      26.205  34.495  15.731  1.00  0.00    -0.390 OA
ATOM     24  O   UNL     1      25.948  32.470  14.872  1.00  0.00    -0.390 OA
ENDBRANCH  19  22
ENDBRANCH  16  17
ENDBRANCH  13  16
ENDBRANCH   1  13
TORSDOF 8
BEGIN_RES LYS A 135
REMARK  4 active torsions:
REMARK  status: ('A' for Active; 'I' for Inactive)
REMARK    1  A    between atoms: CA   and  CB  
REMARK    2  A    between atoms: CB   and  CG  
REMARK    3  A    between atoms: CG   and  CD  
REMARK    4  A    between atoms: CD   and  CE  
ROOT
ATOM      1  CA  LYS A 135      33.193  34.663   9.290  1.00 25.02     0.186 C 
ENDROOT
BRANCH   1   2
ATOM      2  CB  LYS A 135      32.060  35.360  10.034  1.00 26.63     0.034 C 
BRANCH   2   3
ATOM      3  CG  LYS A 135      30.831  35.580   9.190  1.00 29.45     0.005 C 
BRANCH   3   4
ATOM      4  CD  LYS A 135      30.285  34.254   8.682  1.00 32.00     0.041 C 
BRANCH   4   5
ATOM      5  CE  LYS A 135      28.876  34.026   9.197  1.00 34.25     0.338 C 
ATOM      6  NZ  LYS A 135      27.868  34.651   8.296  1.00 35.99     0.618 N 
ENDBRANCH   4   5
ENDBRANCH   3   4
ENDBRANCH   2   3
ENDBRANCH   1   2
END_RES LYS A 135
BEGIN_RES TYR A 136
REMARK  2 active torsions:
REMARK  status: ('A' for Active; 'I' for Inactive)
REMARK    5  A    between atoms: CA   and  CB  
REMARK    6  A    between atoms: CB   and  CG  
ROOT
ATOM      7  CA  TYR A 136      36.583  36.399   8.994  1.00 26.14     0.191 C 
ENDROOT
BRANCH   7   8
ATOM      8  CB  TYR A 136      37.367  36.835  10.240  1.00 28.16     0.060 C 
BRANCH   8   9
ATOM      9  CG  TYR A 136      37.195  38.302  10.550  1.00 31.88    -0.020 A 
ATOM     10  CD2 TYR A 136      36.742  39.198   9.579  1.00 32.67    -0.002 A 
ATOM     11  CE2 TYR A 136      36.587  40.559   9.877  1.00 33.89     0.027 A 
ATOM     12  CZ  TYR A 136      36.888  41.027  11.158  1.00 34.34     0.131 A 
ATOM     13  OH  TYR A 136      36.735  42.369  11.478  1.00 35.14    -0.190 OA
ATOM     14  CE1 TYR A 136      37.340  40.151  12.135  1.00 35.01     0.027 A 
ATOM     15  CD1 TYR A 136      37.496  38.799  11.824  1.00 33.57    -0.002 A 
ENDBRANCH   8   9
ENDBRANCH   7   8
END_RES TYR A 136
BEGIN_RES ASN A 133
REMARK  2 active torsions:
REMARK  status: ('A' for Active; 'I' for Inactive)
REMARK    7  A    between atoms: CA   and  CB  
REMARK    8  A    between atoms: CB   and  CG  
ROOT
ATOM     16  CA  ASN A 133      31.225  30.257  11.749  1.00 18.15     0.196 C 
ENDROOT
BRANCH  16  17
ATOM     17  CB  ASN A 133      30.092  31.240  11.460  1.00 18.27     0.126 C 
BRANCH  17  18
ATOM     18  CG  ASN A 133      28.756  30.578  11.320  1.00 18.94     0.276 C 
ATOM     19  OD1 ASN A 133      28.595  29.619  10.563  1.00 18.09    -0.269 OA
ATOM     20  ND2 ASN A 133      27.772  31.092  12.057  1.00 18.93    -0.107 N 
ENDBRANCH  17  18
ENDBRANCH  16  17
END_RES ASN A 133
