REMARK VINA RESULT:    -4.100      2.039      3.502
REMARK INTER + INTRA:          -7.889
REMARK INTER:                  -4.667
REMARK INTRA:                  -3.222
REMARK UNBOUND:                -3.310
REMARK SMILES Cc1cn(-c2cc(Cl)ccc2C(=O)N(C)C)nn1
REMARK SMILES IDX 5 1 6 2 7 3 8 4 9 5 10 6 11 7 4 8 1 9 2 10 3 11 18 12 17 13
REMARK SMILES IDX 12 14 13 15 14 16 15 17 16 18
REMARK H PARENT
REMARK Flexibility Score: inf
ROOT
ATOM      1  C   UNL     1      38.422  35.089  14.082  1.00  0.00     0.081 A 
ATOM      2  C   UNL     1      37.056  35.136  14.391  1.00  0.00     0.049 A 
ATOM      3  C   UNL     1      36.126  34.573  13.544  1.00  0.00     0.043 A 
ATOM      4  Cl  UNL     1      34.413  34.641  13.947  1.00  0.00    -0.084 Cl
ATOM      5  C   UNL     1      36.517  33.955  12.375  1.00  0.00     0.021 A 
ATOM      6  C   UNL     1      37.859  33.912  12.077  1.00  0.00     0.017 A 
ATOM      7  C   UNL     1      38.781  34.469  12.917  1.00  0.00     0.065 A 
ENDROOT
BRANCH   1   8
ATOM      8  N   UNL     1      39.372  35.672  14.965  1.00  0.00    -0.220 N 
ATOM      9  C   UNL     1      41.650  35.784  17.837  1.00  0.00     0.070 C 
ATOM     10  C   UNL     1      40.810  36.010  16.622  1.00  0.00     0.080 A 
ATOM     11  C   UNL     1      39.935  35.094  16.028  1.00  0.00     0.140 A 
ATOM     12  N   UNL     1      40.722  37.114  15.866  1.00  0.00    -0.135 NA
ATOM     13  N   UNL     1      39.863  36.877  14.896  1.00  0.00    -0.062 NA
ENDBRANCH   1   8
BRANCH   7  14
ATOM     14  C   UNL     1      40.203  34.405  12.570  1.00  0.00     0.255 C 
ATOM     15  O   UNL     1      40.940  33.485  12.998  1.00  0.00    -0.269 OA
ATOM     16  N   UNL     1      40.730  35.425  11.727  1.00  0.00    -0.345 N 
ATOM     17  C   UNL     1      42.153  35.381  11.368  1.00  0.00     0.146 C 
ATOM     18  C   UNL     1      39.921  36.491  11.220  1.00  0.00     0.146 C 
ENDBRANCH   7  14
TORSDOF 2
BEGIN_RES LYS A 135
REMARK  4 active torsions:
REMARK  status: ('A' for Active; 'I' for Inactive)
REMARK    1  A    between atoms: CA   and  CB  
REMARK    2  A    between atoms: CB   and  CG  
REMARK    3  A    between atoms: CG   and  CD  
REMARK    4  A    between atoms: CD   and  CE  
ROOT
ATOM      1  CA  LYS A 135      33.193  34.663   9.290  1.00 25.02     0.186 C 
ENDROOT
BRANCH   1   2
ATOM      2  CB  LYS A 135      32.060  35.360  10.034  1.00 26.63     0.034 C 
BRANCH   2   3
ATOM      3  CG  LYS A 135      30.705  34.757   9.769  1.00 29.45     0.005 C 
BRANCH   3   4
ATOM      4  CD  LYS A 135      30.476  34.585   8.275  1.00 32.00     0.041 C 
BRANCH   4   5
ATOM      5  CE  LYS A 135      29.025  34.853   7.924  1.00 34.25     0.338 C 
ATOM      6  NZ  LYS A 135      28.912  35.577   6.628  1.00 35.99     0.618 N 
ENDBRANCH   4   5
ENDBRANCH   3   4
ENDBRANCH   2   3
ENDBRANCH   1   2
END_RES LYS A 135
BEGIN_RES TYR A 136
REMARK  2 active torsions:
REMARK  status: ('A' for Active; 'I' for Inactive)
REMARK    5  A    between atoms: CA   and  CB  
REMARK    6  A    between atoms: CB   and  CG  
ROOT
ATOM      7  CA  TYR A 136      36.583  36.399   8.994  1.00 26.14     0.191 C 
ENDROOT
BRANCH   7   8
ATOM      8  CB  TYR A 136      37.367  36.835  10.240  1.00 28.16     0.060 C 
BRANCH   8   9
ATOM      9  CG  TYR A 136      36.749  38.028  10.927  1.00 31.88    -0.020 A 
ATOM     10  CD2 TYR A 136      36.653  38.092  12.319  1.00 32.67    -0.002 A 
ATOM     11  CE2 TYR A 136      36.075  39.204  12.947  1.00 33.89     0.027 A 
ATOM     12  CZ  TYR A 136      35.588  40.261  12.174  1.00 34.34     0.131 A 
ATOM     13  OH  TYR A 136      35.019  41.375  12.775  1.00 35.14    -0.190 OA
ATOM     14  CE1 TYR A 136      35.674  40.214  10.790  1.00 35.01     0.027 A 
ATOM     15  CD1 TYR A 136      36.246  39.098  10.176  1.00 33.57    -0.002 A 
ENDBRANCH   8   9
ENDBRANCH   7   8
END_RES TYR A 136
BEGIN_RES ASN A 133
REMARK  2 active torsions:
REMARK  status: ('A' for Active; 'I' for Inactive)
REMARK    7  A    between atoms: CA   and  CB  
REMARK    8  A    between atoms: CB   and  CG  
ROOT
ATOM     16  CA  ASN A 133      31.225  30.257  11.749  1.00 18.15     0.196 C 
ENDROOT
BRANCH  16  17
ATOM     17  CB  ASN A 133      30.092  31.240  11.460  1.00 18.27     0.126 C 
BRANCH  17  18
ATOM     18  CG  ASN A 133      28.751  30.583  11.356  1.00 18.94     0.276 C 
ATOM     19  OD1 ASN A 133      28.573  29.605  10.627  1.00 18.09    -0.269 OA
ATOM     20  ND2 ASN A 133      27.780  31.121  12.093  1.00 18.93    -0.107 N 
ENDBRANCH  17  18
ENDBRANCH  16  17
END_RES ASN A 133
