REMARK VINA RESULT:    -4.217      5.910     10.858
REMARK INTER + INTRA:          -7.356
REMARK INTER:                  -4.073
REMARK INTRA:                  -3.283
REMARK UNBOUND:                -2.892
REMARK SMILES Cc1cn(-c2ccc3[nH]ncc3c2)nn1
REMARK SMILES IDX 5 1 6 2 7 3 8 4 9 5 10 6 11 7 12 8 13 9 4 11 1 12 2 13 3 14
REMARK SMILES IDX 15 15 14 16
REMARK H PARENT 9 10
REMARK Flexibility Score: inf
ROOT
ATOM      1  C   UNL     1      25.701  29.889  15.872  1.00  0.00     0.067 A 
ATOM      2  C   UNL     1      26.968  30.439  15.855  1.00  0.00     0.030 A 
ATOM      3  C   UNL     1      27.853  30.136  16.866  1.00  0.00     0.030 A 
ATOM      4  C   UNL     1      27.530  29.291  17.919  1.00  0.00     0.065 A 
ATOM      5  N   UNL     1      28.170  28.835  19.003  1.00  0.00    -0.278 N 
ATOM      6  N   UNL     1      27.386  28.037  19.694  1.00  0.00    -0.183 NA
ATOM      7  C   UNL     1      26.199  27.953  19.065  1.00  0.00     0.143 A 
ATOM      8  C   UNL     1      26.250  28.738  17.931  1.00  0.00     0.022 A 
ATOM      9  C   UNL     1      25.361  29.041  16.916  1.00  0.00     0.040 A 
ATOM     10  H   UNL     1      29.144  29.076  19.260  1.00  0.00     0.190 HD
ENDROOT
BRANCH   1  11
ATOM     11  N   UNL     1      24.798  30.212  14.820  1.00  0.00    -0.220 N 
ATOM     12  C   UNL     1      22.014  29.905  12.472  1.00  0.00     0.070 C 
ATOM     13  C   UNL     1      23.179  30.250  13.307  1.00  0.00     0.080 A 
ATOM     14  C   UNL     1      23.757  29.529  14.332  1.00  0.00     0.140 A 
ATOM     15  N   UNL     1      23.917  31.377  13.213  1.00  0.00    -0.135 NA
ATOM     16  N   UNL     1      24.888  31.340  14.131  1.00  0.00    -0.062 NA
ENDBRANCH   1  11
TORSDOF 1
BEGIN_RES LYS A 135
REMARK  4 active torsions:
REMARK  status: ('A' for Active; 'I' for Inactive)
REMARK    1  A    between atoms: CA   and  CB  
REMARK    2  A    between atoms: CB   and  CG  
REMARK    3  A    between atoms: CG   and  CD  
REMARK    4  A    between atoms: CD   and  CE  
ROOT
ATOM      1  CA  LYS A 135      33.193  34.663   9.290  1.00 25.02     0.186 C 
ENDROOT
BRANCH   1   2
ATOM      2  CB  LYS A 135      32.060  35.360  10.034  1.00 26.63     0.034 C 
BRANCH   2   3
ATOM      3  CG  LYS A 135      30.859  35.648   9.170  1.00 29.45     0.005 C 
BRANCH   3   4
ATOM      4  CD  LYS A 135      30.325  34.367   8.550  1.00 32.00     0.041 C 
BRANCH   4   5
ATOM      5  CE  LYS A 135      28.813  34.418   8.441  1.00 34.25     0.338 C 
ATOM      6  NZ  LYS A 135      28.168  33.758   9.610  1.00 35.99     0.618 N 
ENDBRANCH   4   5
ENDBRANCH   3   4
ENDBRANCH   2   3
ENDBRANCH   1   2
END_RES LYS A 135
BEGIN_RES TYR A 136
REMARK  2 active torsions:
REMARK  status: ('A' for Active; 'I' for Inactive)
REMARK    5  A    between atoms: CA   and  CB  
REMARK    6  A    between atoms: CB   and  CG  
ROOT
ATOM      7  CA  TYR A 136      36.583  36.399   8.994  1.00 26.14     0.191 C 
ENDROOT
BRANCH   7   8
ATOM      8  CB  TYR A 136      37.367  36.835  10.240  1.00 28.16     0.060 C 
BRANCH   8   9
ATOM      9  CG  TYR A 136      37.212  38.306  10.538  1.00 31.88    -0.020 A 
ATOM     10  CD2 TYR A 136      37.766  38.874  11.687  1.00 32.67    -0.002 A 
ATOM     11  CE2 TYR A 136      37.615  40.241  11.955  1.00 33.89     0.027 A 
ATOM     12  CZ  TYR A 136      36.902  41.048  11.065  1.00 34.34     0.131 A 
ATOM     13  OH  TYR A 136      36.746  42.406  11.307  1.00 35.14    -0.190 OA
ATOM     14  CE1 TYR A 136      36.344  40.501   9.919  1.00 35.01     0.027 A 
ATOM     15  CD1 TYR A 136      36.496  39.136   9.666  1.00 33.57    -0.002 A 
ENDBRANCH   8   9
ENDBRANCH   7   8
END_RES TYR A 136
BEGIN_RES ASN A 133
REMARK  2 active torsions:
REMARK  status: ('A' for Active; 'I' for Inactive)
REMARK    7  A    between atoms: CA   and  CB  
REMARK    8  A    between atoms: CB   and  CG  
ROOT
ATOM     16  CA  ASN A 133      31.225  30.257  11.749  1.00 18.15     0.196 C 
ENDROOT
BRANCH  16  17
ATOM     17  CB  ASN A 133      30.092  31.240  11.460  1.00 18.27     0.126 C 
BRANCH  17  18
ATOM     18  CG  ASN A 133      28.750  30.583  11.360  1.00 18.94     0.276 C 
ATOM     19  OD1 ASN A 133      28.566  29.617  10.617  1.00 18.09    -0.269 OA
ATOM     20  ND2 ASN A 133      27.786  31.109  12.114  1.00 18.93    -0.107 N 
ENDBRANCH  17  18
ENDBRANCH  16  17
END_RES ASN A 133
