REMARK VINA RESULT:    -3.768      5.919      9.941
REMARK INTER + INTRA:          -7.466
REMARK INTER:                  -4.234
REMARK INTRA:                  -3.232
REMARK UNBOUND:                -3.148
REMARK SMILES Cc1cn(-c2ccc(S(N)(=O)=O)cc2)nn1
REMARK SMILES IDX 5 1 6 2 7 3 8 4 13 5 14 6 4 7 1 8 2 9 3 10 16 11 15 12 9 13
REMARK SMILES IDX 11 14 12 15 10 16
REMARK H PARENT 10 17 10 18
REMARK Flexibility Score: inf
ROOT
ATOM      1  C   UNL     1      25.515  36.859   7.932  1.00  0.00     0.066 A 
ATOM      2  C   UNL     1      25.297  35.815   8.807  1.00  0.00     0.030 A 
ATOM      3  C   UNL     1      24.022  35.540   9.315  1.00  0.00     0.024 A 
ATOM      4  C   UNL     1      22.942  36.313   8.950  1.00  0.00     0.082 A 
ATOM      5  C   UNL     1      23.150  37.350   8.083  1.00  0.00     0.024 A 
ATOM      6  C   UNL     1      24.398  37.618   7.586  1.00  0.00     0.030 A 
ENDROOT
BRANCH   1   7
ATOM      7  N   UNL     1      26.783  37.182   7.389  1.00  0.00    -0.220 N 
ATOM      8  C   UNL     1      30.000  38.856   7.580  1.00  0.00     0.070 C 
ATOM      9  C   UNL     1      28.819  38.073   7.201  1.00  0.00     0.080 A 
ATOM     10  C   UNL     1      27.685  37.958   8.006  1.00  0.00     0.140 A 
ATOM     11  N   UNL     1      28.540  37.343   6.115  1.00  0.00    -0.135 NA
ATOM     12  N   UNL     1      27.317  36.816   6.242  1.00  0.00    -0.062 NA
ENDBRANCH   1   7
BRANCH   4  13
ATOM     13  S   UNL     1      21.350  35.967   9.585  1.00  0.00     0.238 S 
ATOM     14  O   UNL     1      20.533  35.269   8.533  1.00  0.00    -0.207 OA
ATOM     15  O   UNL     1      21.427  35.102  10.791  1.00  0.00    -0.207 OA
BRANCH  13  16
ATOM     16  N   UNL     1      20.553  37.463   9.929  1.00  0.00    -0.225 NA
ATOM     17  H   UNL     1      21.250  38.242   9.875  1.00  0.00     0.137 HD
ATOM     18  H   UNL     1      19.846  37.597   9.152  1.00  0.00     0.137 HD
ENDBRANCH  13  16
ENDBRANCH   4  13
TORSDOF 3
BEGIN_RES LYS A 135
REMARK  4 active torsions:
REMARK  status: ('A' for Active; 'I' for Inactive)
REMARK    1  A    between atoms: CA   and  CB  
REMARK    2  A    between atoms: CB   and  CG  
REMARK    3  A    between atoms: CG   and  CD  
REMARK    4  A    between atoms: CD   and  CE  
ROOT
ATOM      1  CA  LYS A 135      33.193  34.663   9.290  1.00 25.02     0.186 C 
ENDROOT
BRANCH   1   2
ATOM      2  CB  LYS A 135      32.060  35.360  10.034  1.00 26.63     0.034 C 
BRANCH   2   3
ATOM      3  CG  LYS A 135      30.838  35.598   9.185  1.00 29.45     0.005 C 
BRANCH   3   4
ATOM      4  CD  LYS A 135      30.270  34.280   8.680  1.00 32.00     0.041 C 
BRANCH   4   5
ATOM      5  CE  LYS A 135      28.765  34.376   8.518  1.00 34.25     0.338 C 
ATOM      6  NZ  LYS A 135      28.060  33.688   9.635  1.00 35.99     0.618 N 
ENDBRANCH   4   5
ENDBRANCH   3   4
ENDBRANCH   2   3
ENDBRANCH   1   2
END_RES LYS A 135
BEGIN_RES TYR A 136
REMARK  2 active torsions:
REMARK  status: ('A' for Active; 'I' for Inactive)
REMARK    5  A    between atoms: CA   and  CB  
REMARK    6  A    between atoms: CB   and  CG  
ROOT
ATOM      7  CA  TYR A 136      36.583  36.399   8.994  1.00 26.14     0.191 C 
ENDROOT
BRANCH   7   8
ATOM      8  CB  TYR A 136      37.367  36.835  10.240  1.00 28.16     0.060 C 
BRANCH   8   9
ATOM      9  CG  TYR A 136      37.170  38.295  10.568  1.00 31.88    -0.020 A 
ATOM     10  CD2 TYR A 136      37.740  39.296   9.778  1.00 32.67    -0.002 A 
ATOM     11  CE2 TYR A 136      37.553  40.649  10.092  1.00 33.89     0.027 A 
ATOM     12  CZ  TYR A 136      36.789  41.003  11.207  1.00 34.34     0.131 A 
ATOM     13  OH  TYR A 136      36.584  42.337  11.533  1.00 35.14    -0.190 OA
ATOM     14  CE1 TYR A 136      36.217  40.022  12.003  1.00 35.01     0.027 A 
ATOM     15  CD1 TYR A 136      36.416  38.677  11.684  1.00 33.57    -0.002 A 
ENDBRANCH   8   9
ENDBRANCH   7   8
END_RES TYR A 136
BEGIN_RES ASN A 133
REMARK  2 active torsions:
REMARK  status: ('A' for Active; 'I' for Inactive)
REMARK    7  A    between atoms: CA   and  CB  
REMARK    8  A    between atoms: CB   and  CG  
ROOT
ATOM     16  CA  ASN A 133      31.225  30.257  11.749  1.00 18.15     0.196 C 
ENDROOT
BRANCH  16  17
ATOM     17  CB  ASN A 133      30.092  31.240  11.460  1.00 18.27     0.126 C 
BRANCH  17  18
ATOM     18  CG  ASN A 133      28.750  30.584  11.364  1.00 18.94     0.276 C 
ATOM     19  OD1 ASN A 133      28.566  29.611  10.631  1.00 18.09    -0.269 OA
ATOM     20  ND2 ASN A 133      27.785  31.118  12.112  1.00 18.93    -0.107 N 
ENDBRANCH  17  18
ENDBRANCH  16  17
END_RES ASN A 133
