REMARK VINA RESULT:    -4.692      1.595      2.257
REMARK INTER + INTRA:          -8.866
REMARK INTER:                  -5.457
REMARK INTRA:                  -3.408
REMARK UNBOUND:                -3.214
REMARK SMILES Cc1cn(-c2cccc(C=CC(=O)O)c2)nn1
REMARK SMILES IDX 10 1 11 2 9 3 5 4 15 5 6 6 7 7 8 8 4 9 1 10 2 11 3 12 17 13
REMARK SMILES IDX 16 14 12 15 13 16 14 17
REMARK H PARENT 14 18
REMARK Flexibility Score: inf
ROOT
ATOM      1  C   UNL     1      33.700  35.670  13.502  1.00  0.00     0.015 C 
ATOM      2  C   UNL     1      34.716  35.376  12.817  1.00  0.00     0.094 C 
ENDROOT
BRANCH   1   3
ATOM      3  C   UNL     1      33.233  35.306  14.801  1.00  0.00    -0.023 A 
ATOM      4  C   UNL     1      31.977  33.987  16.392  1.00  0.00     0.067 A 
ATOM      5  C   UNL     1      32.465  34.218  15.099  1.00  0.00     0.036 A 
ATOM      6  C   UNL     1      32.290  34.889  17.379  1.00  0.00     0.028 A 
ATOM      7  C   UNL     1      33.067  35.992  17.100  1.00  0.00     0.003 A 
ATOM      8  C   UNL     1      33.538  36.212  15.841  1.00  0.00     0.008 A 
BRANCH   4   9
ATOM      9  N   UNL     1      31.177  32.843  16.659  1.00  0.00    -0.220 N 
ATOM     10  C   UNL     1      29.040  30.647  18.713  1.00  0.00     0.070 C 
ATOM     11  C   UNL     1      29.868  31.356  17.696  1.00  0.00     0.080 A 
ATOM     12  C   UNL     1      30.545  32.551  17.824  1.00  0.00     0.140 A 
ATOM     13  N   UNL     1      30.118  30.955  16.429  1.00  0.00    -0.135 NA
ATOM     14  N   UNL     1      30.893  31.843  15.825  1.00  0.00    -0.062 NA
ENDBRANCH   4   9
ENDBRANCH   1   3
BRANCH   2  15
ATOM     15  C   UNL     1      35.866  34.564  12.966  1.00  0.00     0.328 C 
ATOM     16  O   UNL     1      36.497  34.287  14.006  1.00  0.00    -0.247 OA
BRANCH  15  17
ATOM     17  O   UNL     1      36.424  33.948  11.789  1.00  0.00    -0.478 OA
ATOM     18  H   UNL     1      37.273  33.403  11.948  1.00  0.00     0.297 HD
ENDBRANCH  15  17
ENDBRANCH   2  15
TORSDOF 4
BEGIN_RES LYS A 135
REMARK  4 active torsions:
REMARK  status: ('A' for Active; 'I' for Inactive)
REMARK    1  A    between atoms: CA   and  CB  
REMARK    2  A    between atoms: CB   and  CG  
REMARK    3  A    between atoms: CG   and  CD  
REMARK    4  A    between atoms: CD   and  CE  
ROOT
ATOM      1  CA  LYS A 135      33.193  34.663   9.290  1.00 25.02     0.186 C 
ENDROOT
BRANCH   1   2
ATOM      2  CB  LYS A 135      32.060  35.360  10.034  1.00 26.63     0.034 C 
BRANCH   2   3
ATOM      3  CG  LYS A 135      30.730  34.665   9.894  1.00 29.45     0.005 C 
BRANCH   3   4
ATOM      4  CD  LYS A 135      30.330  34.563   8.430  1.00 32.00     0.041 C 
BRANCH   4   5
ATOM      5  CE  LYS A 135      28.821  34.486   8.294  1.00 34.25     0.338 C 
ATOM      6  NZ  LYS A 135      28.212  33.796   9.465  1.00 35.99     0.618 N 
ENDBRANCH   4   5
ENDBRANCH   3   4
ENDBRANCH   2   3
ENDBRANCH   1   2
END_RES LYS A 135
BEGIN_RES TYR A 136
REMARK  2 active torsions:
REMARK  status: ('A' for Active; 'I' for Inactive)
REMARK    5  A    between atoms: CA   and  CB  
REMARK    6  A    between atoms: CB   and  CG  
ROOT
ATOM      7  CA  TYR A 136      36.583  36.399   8.994  1.00 26.14     0.191 C 
ENDROOT
BRANCH   7   8
ATOM      8  CB  TYR A 136      37.367  36.835  10.240  1.00 28.16     0.060 C 
BRANCH   8   9
ATOM      9  CG  TYR A 136      37.065  38.256  10.647  1.00 31.88    -0.020 A 
ATOM     10  CD2 TYR A 136      36.328  38.537  11.800  1.00 32.67    -0.002 A 
ATOM     11  CE2 TYR A 136      36.052  39.861  12.168  1.00 33.89     0.027 A 
ATOM     12  CZ  TYR A 136      36.518  40.913  11.376  1.00 34.34     0.131 A 
ATOM     13  OH  TYR A 136      36.262  42.232  11.726  1.00 35.14    -0.190 OA
ATOM     14  CE1 TYR A 136      37.251  40.652  10.228  1.00 35.01     0.027 A 
ATOM     15  CD1 TYR A 136      37.514  39.330   9.867  1.00 33.57    -0.002 A 
ENDBRANCH   8   9
ENDBRANCH   7   8
END_RES TYR A 136
BEGIN_RES ASN A 133
REMARK  2 active torsions:
REMARK  status: ('A' for Active; 'I' for Inactive)
REMARK    7  A    between atoms: CA   and  CB  
REMARK    8  A    between atoms: CB   and  CG  
ROOT
ATOM     16  CA  ASN A 133      31.225  30.257  11.749  1.00 18.15     0.196 C 
ENDROOT
BRANCH  16  17
ATOM     17  CB  ASN A 133      30.092  31.240  11.460  1.00 18.27     0.126 C 
BRANCH  17  18
ATOM     18  CG  ASN A 133      28.748  30.585  11.374  1.00 18.94     0.276 C 
ATOM     19  OD1 ASN A 133      28.568  29.587  10.674  1.00 18.09    -0.269 OA
ATOM     20  ND2 ASN A 133      27.778  31.149  12.093  1.00 18.93    -0.107 N 
ENDBRANCH  17  18
ENDBRANCH  16  17
END_RES ASN A 133
