REMARK VINA RESULT:   -10.239      6.198      9.979
REMARK INTER + INTRA:          -6.962
REMARK INTER:                  -5.123
REMARK INTRA:                  -1.840
REMARK UNBOUND:                 6.270
REMARK SMILES Cc1cn(C2CCc3ccccc3NC2=O)nn1
REMARK SMILES IDX 14 1 15 2 16 3 5 5 4 6 1 7 2 8 3 9 18 10 17 11 6 12 13 14
REMARK SMILES IDX 8 15 12 16 9 17 11 18 10 19 7 20
REMARK H PARENT 14 4
REMARK Flexibility Score: 90.00
ROOT
ATOM      1  N   UNL     1      28.984  30.638  16.005  1.00  0.00    -0.324 N 
ATOM      2  C   UNL     1      27.656  30.245  16.298  1.00  0.00     0.249 C 
ATOM      3  O   UNL     1      27.512  28.999  16.409  1.00  0.00    -0.272 OA
ATOM      4  H   UNL     1      29.668  29.909  15.695  1.00  0.00     0.170 HD
ENDROOT
BRANCH   2   5
ATOM      5  C   UNL     1      26.441  31.050  16.488  1.00  0.00     0.198 C 
BRANCH   5   6
ATOM      6  N   UNL     1      25.364  30.396  15.766  1.00  0.00    -0.240 N 
ATOM      7  C   UNL     1      23.353  29.588  12.797  1.00  0.00     0.070 C 
ATOM      8  C   UNL     1      24.005  29.761  14.114  1.00  0.00     0.080 A 
ATOM      9  C   UNL     1      25.101  30.531  14.431  1.00  0.00     0.135 A 
ATOM     10  N   UNL     1      23.623  29.175  15.258  1.00  0.00    -0.136 NA
ATOM     11  N   UNL     1      24.445  29.562  16.246  1.00  0.00    -0.066 NA
ENDBRANCH   5   6
BRANCH   5  12
ATOM     12  C   UNL     1      26.570  32.448  15.947  1.00  0.00     0.042 CG0
ATOM     13  G   UNL     1      27.481  33.302  16.825  1.00  0.00     0.000 G0
ENDBRANCH   5  12
ENDBRANCH   2   5
BRANCH   1  14
ATOM     14  C   UNL     1      29.552  31.941  16.077  1.00  0.00     0.044 A 
ATOM     15  C   UNL     1      28.916  33.132  16.436  1.00  0.00    -0.024 A 
ATOM     16  C   UNL     1      30.888  31.989  15.746  1.00  0.00     0.026 A 
ATOM     17  C   UNL     1      29.645  34.301  16.445  1.00  0.00     0.006 A 
ATOM     18  C   UNL     1      31.645  33.143  15.745  1.00  0.00     0.002 A 
ATOM     19  C   UNL     1      30.980  34.321  16.109  1.00  0.00     0.000 A 
BRANCH  15  20
ATOM     20  C   UNL     1      27.487  33.294  16.826  1.00  0.00     0.040 CG0
ATOM     21  G   UNL     1      26.586  32.442  15.936  1.00  0.00     0.000 G0
ENDBRANCH  15  20
ENDBRANCH   1  14
TORSDOF 1
BEGIN_RES LYS A 135
REMARK  4 active torsions:
REMARK  status: ('A' for Active; 'I' for Inactive)
REMARK    1  A    between atoms: CA   and  CB  
REMARK    2  A    between atoms: CB   and  CG  
REMARK    3  A    between atoms: CG   and  CD  
REMARK    4  A    between atoms: CD   and  CE  
ROOT
ATOM      1  CA  LYS A 135      33.193  34.663   9.290  1.00 25.02     0.186 C 
ENDROOT
BRANCH   1   2
ATOM      2  CB  LYS A 135      32.060  35.360  10.034  1.00 26.63     0.034 C 
BRANCH   2   3
ATOM      3  CG  LYS A 135      30.815  35.541   9.204  1.00 29.45     0.005 C 
BRANCH   3   4
ATOM      4  CD  LYS A 135      30.252  34.193   8.781  1.00 32.00     0.041 C 
BRANCH   4   5
ATOM      5  CE  LYS A 135      28.742  34.262   8.655  1.00 34.25     0.338 C 
ATOM      6  NZ  LYS A 135      28.077  33.746   9.883  1.00 35.99     0.618 N 
ENDBRANCH   4   5
ENDBRANCH   3   4
ENDBRANCH   2   3
ENDBRANCH   1   2
END_RES LYS A 135
BEGIN_RES TYR A 136
REMARK  2 active torsions:
REMARK  status: ('A' for Active; 'I' for Inactive)
REMARK    5  A    between atoms: CA   and  CB  
REMARK    6  A    between atoms: CB   and  CG  
ROOT
ATOM      7  CA  TYR A 136      36.583  36.399   8.994  1.00 26.14     0.191 C 
ENDROOT
BRANCH   7   8
ATOM      8  CB  TYR A 136      37.367  36.835  10.240  1.00 28.16     0.060 C 
BRANCH   8   9
ATOM      9  CG  TYR A 136      37.259  38.317  10.504  1.00 31.88    -0.020 A 
ATOM     10  CD2 TYR A 136      38.395  39.093  10.745  1.00 32.67    -0.002 A 
ATOM     11  CE2 TYR A 136      38.284  40.468  10.991  1.00 33.89     0.027 A 
ATOM     12  CZ  TYR A 136      37.024  41.072  10.997  1.00 34.34     0.131 A 
ATOM     13  OH  TYR A 136      36.891  42.434  11.232  1.00 35.14    -0.190 OA
ATOM     14  CE1 TYR A 136      35.885  40.316  10.761  1.00 35.01     0.027 A 
ATOM     15  CD1 TYR A 136      36.008  38.946  10.524  1.00 33.57    -0.002 A 
ENDBRANCH   8   9
ENDBRANCH   7   8
END_RES TYR A 136
BEGIN_RES ASN A 133
REMARK  2 active torsions:
REMARK  status: ('A' for Active; 'I' for Inactive)
REMARK    7  A    between atoms: CA   and  CB  
REMARK    8  A    between atoms: CB   and  CG  
ROOT
ATOM     16  CA  ASN A 133      31.225  30.257  11.749  1.00 18.15     0.196 C 
ENDROOT
BRANCH  16  17
ATOM     17  CB  ASN A 133      30.092  31.240  11.460  1.00 18.27     0.126 C 
BRANCH  17  18
ATOM     18  CG  ASN A 133      28.739  30.702  11.809  1.00 18.94     0.276 C 
ATOM     19  OD1 ASN A 133      28.178  31.017  12.860  1.00 18.09    -0.269 OA
ATOM     20  ND2 ASN A 133      28.194  29.873  10.919  1.00 18.93    -0.107 N 
ENDBRANCH  17  18
ENDBRANCH  16  17
END_RES ASN A 133
