REMARK VINA RESULT:    -3.455      5.781      7.833
REMARK INTER + INTRA:          -6.930
REMARK INTER:                  -3.862
REMARK INTRA:                  -3.068
REMARK UNBOUND:                -2.667
REMARK SMILES Cc1cn(CC(O)CO)nn1
REMARK SMILES IDX 6 1 5 2 4 3 1 4 2 5 3 6 11 7 10 8 7 9 8 11 9 12
REMARK H PARENT 7 10 9 13
REMARK Flexibility Score: inf
ROOT
ATOM      1  C   UNL     1      27.396  36.944   6.552  1.00  0.00     0.161 C 
ENDROOT
BRANCH   1   2
ATOM      2  C   UNL     1      26.397  37.813   7.279  1.00  0.00     0.180 C 
BRANCH   2   3
ATOM      3  N   UNL     1      25.437  37.024   8.022  1.00  0.00    -0.250 N 
ATOM      4  C   UNL     1      22.159  36.064   9.344  1.00  0.00     0.070 C 
ATOM      5  C   UNL     1      23.575  36.246   8.935  1.00  0.00     0.080 A 
ATOM      6  C   UNL     1      24.114  37.229   8.141  1.00  0.00     0.134 A 
ATOM      7  N   UNL     1      24.609  35.455   9.282  1.00  0.00    -0.136 NA
ATOM      8  N   UNL     1      25.696  35.938   8.730  1.00  0.00    -0.067 NA
ENDBRANCH   2   3
ENDBRANCH   1   2
BRANCH   1   9
ATOM      9  O   UNL     1      27.097  36.976   5.197  1.00  0.00    -0.389 OA
ATOM     10  H   UNL     1      27.556  36.311   4.662  1.00  0.00     0.211 HD
ENDBRANCH   1   9
BRANCH   1  11
ATOM     11  C   UNL     1      28.782  37.478   6.738  1.00  0.00     0.189 C 
BRANCH  11  12
ATOM     12  O   UNL     1      29.395  37.552   5.497  1.00  0.00    -0.394 OA
ATOM     13  H   UNL     1      30.332  37.872   5.564  1.00  0.00     0.210 HD
ENDBRANCH  11  12
ENDBRANCH   1  11
TORSDOF 5
BEGIN_RES LYS A 135
REMARK  4 active torsions:
REMARK  status: ('A' for Active; 'I' for Inactive)
REMARK    1  A    between atoms: CA   and  CB  
REMARK    2  A    between atoms: CB   and  CG  
REMARK    3  A    between atoms: CG   and  CD  
REMARK    4  A    between atoms: CD   and  CE  
ROOT
ATOM      1  CA  LYS A 135      33.193  34.663   9.290  1.00 25.02     0.186 C 
ENDROOT
BRANCH   1   2
ATOM      2  CB  LYS A 135      32.060  35.360  10.034  1.00 26.63     0.034 C 
BRANCH   2   3
ATOM      3  CG  LYS A 135      30.833  35.585   9.189  1.00 29.45     0.005 C 
BRANCH   3   4
ATOM      4  CD  LYS A 135      30.294  34.264   8.663  1.00 32.00     0.041 C 
BRANCH   4   5
ATOM      5  CE  LYS A 135      28.808  34.145   8.944  1.00 34.25     0.338 C 
ATOM      6  NZ  LYS A 135      28.514  34.385  10.384  1.00 35.99     0.618 N 
ENDBRANCH   4   5
ENDBRANCH   3   4
ENDBRANCH   2   3
ENDBRANCH   1   2
END_RES LYS A 135
BEGIN_RES TYR A 136
REMARK  2 active torsions:
REMARK  status: ('A' for Active; 'I' for Inactive)
REMARK    5  A    between atoms: CA   and  CB  
REMARK    6  A    between atoms: CB   and  CG  
ROOT
ATOM      7  CA  TYR A 136      36.583  36.399   8.994  1.00 26.14     0.191 C 
ENDROOT
BRANCH   7   8
ATOM      8  CB  TYR A 136      37.367  36.835  10.240  1.00 28.16     0.060 C 
BRANCH   8   9
ATOM      9  CG  TYR A 136      37.205  38.304  10.542  1.00 31.88    -0.020 A 
ATOM     10  CD2 TYR A 136      37.765  38.873  11.689  1.00 32.67    -0.002 A 
ATOM     11  CE2 TYR A 136      37.608  40.238  11.962  1.00 33.89     0.027 A 
ATOM     12  CZ  TYR A 136      36.883  41.043  11.079  1.00 34.34     0.131 A 
ATOM     13  OH  TYR A 136      36.721  42.399  11.325  1.00 35.14    -0.190 OA
ATOM     14  CE1 TYR A 136      36.320  40.495   9.935  1.00 35.01     0.027 A 
ATOM     15  CD1 TYR A 136      36.478  39.132   9.678  1.00 33.57    -0.002 A 
ENDBRANCH   8   9
ENDBRANCH   7   8
END_RES TYR A 136
BEGIN_RES ASN A 133
REMARK  2 active torsions:
REMARK  status: ('A' for Active; 'I' for Inactive)
REMARK    7  A    between atoms: CA   and  CB  
REMARK    8  A    between atoms: CB   and  CG  
ROOT
ATOM     16  CA  ASN A 133      31.225  30.257  11.749  1.00 18.15     0.196 C 
ENDROOT
BRANCH  16  17
ATOM     17  CB  ASN A 133      30.092  31.240  11.460  1.00 18.27     0.126 C 
BRANCH  17  18
ATOM     18  CG  ASN A 133      28.755  30.579  11.326  1.00 18.94     0.276 C 
ATOM     19  OD1 ASN A 133      28.603  29.585  10.614  1.00 18.09    -0.269 OA
ATOM     20  ND2 ASN A 133      27.759  31.133  12.017  1.00 18.93    -0.107 N 
ENDBRANCH  17  18
ENDBRANCH  16  17
END_RES ASN A 133
