REMARK VINA RESULT:    -3.587      1.090      3.847
REMARK INTER + INTRA:          -7.046
REMARK INTER:                  -3.813
REMARK INTRA:                  -3.233
REMARK UNBOUND:                -3.249
REMARK SMILES Cc1cn(C2CCN(C)CC2)nn1
REMARK SMILES IDX 5 1 6 2 7 3 8 4 9 5 10 6 11 7 4 8 1 9 2 10 3 11 13 12 12 13
REMARK H PARENT
REMARK Flexibility Score: inf
ROOT
ATOM      1  C   UNL     1      21.513  33.236  -0.275  1.00  0.00     0.111 C 
ATOM      2  C   UNL     1      21.249  32.508  -1.559  1.00  0.00     0.043 C 
ATOM      3  C   UNL     1      22.351  31.457  -1.711  1.00  0.00     0.086 C 
ATOM      4  N   UNL     1      22.334  30.663  -0.542  1.00  0.00    -0.306 NA
ATOM      5  C   UNL     1      22.640  29.296  -0.684  1.00  0.00     0.105 C 
ATOM      6  C   UNL     1      22.714  31.295   0.660  1.00  0.00     0.086 C 
ATOM      7  C   UNL     1      22.787  32.806   0.404  1.00  0.00     0.043 C 
ENDROOT
BRANCH   1   8
ATOM      8  N   UNL     1      21.591  34.651  -0.581  1.00  0.00    -0.249 N 
ATOM      9  C   UNL     1      23.305  37.746  -1.274  1.00  0.00     0.070 C 
ATOM     10  C   UNL     1      22.347  36.644  -1.022  1.00  0.00     0.080 A 
ATOM     11  C   UNL     1      22.712  35.349  -0.749  1.00  0.00     0.134 A 
ATOM     12  N   UNL     1      21.008  36.695  -1.013  1.00  0.00    -0.136 NA
ATOM     13  N   UNL     1      20.586  35.477  -0.744  1.00  0.00    -0.067 NA
ENDBRANCH   1   8
TORSDOF 1
BEGIN_RES LYS A 135
REMARK  4 active torsions:
REMARK  status: ('A' for Active; 'I' for Inactive)
REMARK    1  A    between atoms: CA   and  CB  
REMARK    2  A    between atoms: CB   and  CG  
REMARK    3  A    between atoms: CG   and  CD  
REMARK    4  A    between atoms: CD   and  CE  
ROOT
ATOM      1  CA  LYS A 135      33.193  34.663   9.290  1.00 25.02     0.186 C 
ENDROOT
BRANCH   1   2
ATOM      2  CB  LYS A 135      32.060  35.360  10.034  1.00 26.63     0.034 C 
BRANCH   2   3
ATOM      3  CG  LYS A 135      30.722  34.689   9.859  1.00 29.45     0.005 C 
BRANCH   3   4
ATOM      4  CD  LYS A 135      30.361  34.588   8.385  1.00 32.00     0.041 C 
BRANCH   4   5
ATOM      5  CE  LYS A 135      28.855  34.591   8.204  1.00 34.25     0.338 C 
ATOM      6  NZ  LYS A 135      28.175  33.938   9.357  1.00 35.99     0.618 N 
ENDBRANCH   4   5
ENDBRANCH   3   4
ENDBRANCH   2   3
ENDBRANCH   1   2
END_RES LYS A 135
BEGIN_RES TYR A 136
REMARK  2 active torsions:
REMARK  status: ('A' for Active; 'I' for Inactive)
REMARK    5  A    between atoms: CA   and  CB  
REMARK    6  A    between atoms: CB   and  CG  
ROOT
ATOM      7  CA  TYR A 136      36.583  36.399   8.994  1.00 26.14     0.191 C 
ENDROOT
BRANCH   7   8
ATOM      8  CB  TYR A 136      37.367  36.835  10.240  1.00 28.16     0.060 C 
BRANCH   8   9
ATOM      9  CG  TYR A 136      37.194  38.301  10.551  1.00 31.88    -0.020 A 
ATOM     10  CD2 TYR A 136      37.616  38.837  11.770  1.00 32.67    -0.002 A 
ATOM     11  CE2 TYR A 136      37.449  40.200  12.049  1.00 33.89     0.027 A 
ATOM     12  CZ  TYR A 136      36.854  41.035  11.100  1.00 34.34     0.131 A 
ATOM     13  OH  TYR A 136      36.685  42.390  11.352  1.00 35.14    -0.190 OA
ATOM     14  CE1 TYR A 136      36.428  40.520   9.884  1.00 35.01     0.027 A 
ATOM     15  CD1 TYR A 136      36.594  39.159   9.620  1.00 33.57    -0.002 A 
ENDBRANCH   8   9
ENDBRANCH   7   8
END_RES TYR A 136
BEGIN_RES ASN A 133
REMARK  2 active torsions:
REMARK  status: ('A' for Active; 'I' for Inactive)
REMARK    7  A    between atoms: CA   and  CB  
REMARK    8  A    between atoms: CB   and  CG  
ROOT
ATOM     16  CA  ASN A 133      31.225  30.257  11.749  1.00 18.15     0.196 C 
ENDROOT
BRANCH  16  17
ATOM     17  CB  ASN A 133      30.092  31.240  11.460  1.00 18.27     0.126 C 
BRANCH  17  18
ATOM     18  CG  ASN A 133      28.757  30.578  11.317  1.00 18.94     0.276 C 
ATOM     19  OD1 ASN A 133      28.600  29.613  10.567  1.00 18.09    -0.269 OA
ATOM     20  ND2 ASN A 133      27.767  31.098  12.042  1.00 18.93    -0.107 N 
ENDBRANCH  17  18
ENDBRANCH  16  17
END_RES ASN A 133
