REMARK VINA RESULT:    -3.783      3.946      9.112
REMARK INTER + INTRA:          -9.835
REMARK INTER:                  -6.910
REMARK INTRA:                  -2.925
REMARK UNBOUND:                -3.509
REMARK SMILES Cc1cn(CCCCCCCCCCC(=O)O)nn1
REMARK SMILES IDX 10 1 9 2 8 3 7 4 6 5 5 6 4 7 1 8 2 9 3 10 19 11 18 12 11 13
REMARK SMILES IDX 12 14 13 15 14 16 15 17 16 18 17 19
REMARK H PARENT 17 20
REMARK Flexibility Score: inf
ROOT
ATOM      1  C   UNL     1      27.357  35.747  11.098  1.00  0.00     0.000 C 
ENDROOT
BRANCH   1   2
ATOM      2  C   UNL     1      27.522  34.327  10.771  1.00  0.00     0.000 C 
BRANCH   2   3
ATOM      3  C   UNL     1      28.084  33.846   9.502  1.00  0.00     0.000 C 
BRANCH   3   4
ATOM      4  C   UNL     1      29.285  34.514   8.947  1.00  0.00     0.002 C 
BRANCH   4   5
ATOM      5  C   UNL     1      28.955  35.058   7.546  1.00  0.00     0.024 C 
BRANCH   5   6
ATOM      6  C   UNL     1      27.509  35.343   7.343  1.00  0.00     0.146 C 
BRANCH   6   7
ATOM      7  N   UNL     1      27.351  36.740   6.893  1.00  0.00    -0.252 N 
ATOM      8  C   UNL     1      27.622  39.426   4.406  1.00  0.00     0.070 C 
ATOM      9  C   UNL     1      27.407  38.541   5.579  1.00  0.00     0.080 A 
ATOM     10  C   UNL     1      27.685  37.193   5.659  1.00  0.00     0.134 A 
ATOM     11  N   UNL     1      26.906  38.861   6.788  1.00  0.00    -0.136 NA
ATOM     12  N   UNL     1      26.883  37.767   7.553  1.00  0.00    -0.067 NA
ENDBRANCH   6   7
ENDBRANCH   5   6
ENDBRANCH   4   5
ENDBRANCH   3   4
ENDBRANCH   2   3
ENDBRANCH   1   2
BRANCH   1  13
ATOM     13  C   UNL     1      26.099  36.447  10.776  1.00  0.00     0.000 C 
BRANCH  13  14
ATOM     14  C   UNL     1      24.958  35.432  10.549  1.00  0.00     0.001 C 
BRANCH  14  15
ATOM     15  C   UNL     1      24.258  35.652   9.244  1.00  0.00     0.012 C 
BRANCH  15  16
ATOM     16  C   UNL     1      23.689  37.068   9.167  1.00  0.00     0.122 C 
BRANCH  16  17
ATOM     17  C   UNL     1      23.226  37.365   7.790  1.00  0.00     0.303 C 
ATOM     18  O   UNL     1      22.193  36.847   7.306  1.00  0.00    -0.252 OA
BRANCH  17  19
ATOM     19  O   UNL     1      23.949  38.242   6.997  1.00  0.00    -0.481 OA
ATOM     20  H   UNL     1      24.517  38.982   7.361  1.00  0.00     0.296 HD
ENDBRANCH  17  19
ENDBRANCH  16  17
ENDBRANCH  15  16
ENDBRANCH  14  15
ENDBRANCH  13  14
ENDBRANCH   1  13
TORSDOF 12
BEGIN_RES LYS A 135
REMARK  4 active torsions:
REMARK  status: ('A' for Active; 'I' for Inactive)
REMARK    1  A    between atoms: CA   and  CB  
REMARK    2  A    between atoms: CB   and  CG  
REMARK    3  A    between atoms: CG   and  CD  
REMARK    4  A    between atoms: CD   and  CE  
ROOT
ATOM      1  CA  LYS A 135      33.193  34.663   9.290  1.00 25.02     0.186 C 
ENDROOT
BRANCH   1   2
ATOM      2  CB  LYS A 135      32.060  35.360  10.034  1.00 26.63     0.034 C 
BRANCH   2   3
ATOM      3  CG  LYS A 135      32.251  35.393  11.528  1.00 29.45     0.005 C 
BRANCH   3   4
ATOM      4  CD  LYS A 135      30.956  35.036  12.243  1.00 32.00     0.041 C 
BRANCH   4   5
ATOM      5  CE  LYS A 135      30.474  36.201  13.085  1.00 34.25     0.338 C 
ATOM      6  NZ  LYS A 135      31.620  36.972  13.641  1.00 35.99     0.618 N 
ENDBRANCH   4   5
ENDBRANCH   3   4
ENDBRANCH   2   3
ENDBRANCH   1   2
END_RES LYS A 135
BEGIN_RES TYR A 136
REMARK  2 active torsions:
REMARK  status: ('A' for Active; 'I' for Inactive)
REMARK    5  A    between atoms: CA   and  CB  
REMARK    6  A    between atoms: CB   and  CG  
ROOT
ATOM      7  CA  TYR A 136      36.583  36.399   8.994  1.00 26.14     0.191 C 
ENDROOT
BRANCH   7   8
ATOM      8  CB  TYR A 136      37.367  36.835  10.240  1.00 28.16     0.060 C 
BRANCH   8   9
ATOM      9  CG  TYR A 136      36.499  37.537  11.256  1.00 31.88    -0.020 A 
ATOM     10  CD2 TYR A 136      36.232  36.961  12.500  1.00 32.67    -0.002 A 
ATOM     11  CE2 TYR A 136      35.423  37.620  13.435  1.00 33.89     0.027 A 
ATOM     12  CZ  TYR A 136      34.876  38.867  13.123  1.00 34.34     0.131 A 
ATOM     13  OH  TYR A 136      34.078  39.541  14.037  1.00 35.14    -0.190 OA
ATOM     14  CE1 TYR A 136      35.130  39.453  11.891  1.00 35.01     0.027 A 
ATOM     15  CD1 TYR A 136      35.932  38.784  10.965  1.00 33.57    -0.002 A 
ENDBRANCH   8   9
ENDBRANCH   7   8
END_RES TYR A 136
BEGIN_RES ASN A 133
REMARK  2 active torsions:
REMARK  status: ('A' for Active; 'I' for Inactive)
REMARK    7  A    between atoms: CA   and  CB  
REMARK    8  A    between atoms: CB   and  CG  
ROOT
ATOM     16  CA  ASN A 133      31.225  30.257  11.749  1.00 18.15     0.196 C 
ENDROOT
BRANCH  16  17
ATOM     17  CB  ASN A 133      30.092  31.240  11.460  1.00 18.27     0.126 C 
BRANCH  17  18
ATOM     18  CG  ASN A 133      28.753  30.581  11.342  1.00 18.94     0.276 C 
ATOM     19  OD1 ASN A 133      28.568  29.646  10.560  1.00 18.09    -0.269 OA
ATOM     20  ND2 ASN A 133      27.792  31.069  12.125  1.00 18.93    -0.107 N 
ENDBRANCH  17  18
ENDBRANCH  16  17
END_RES ASN A 133
