REMARK VINA RESULT:    -4.057      4.827      9.829
REMARK INTER + INTRA:          -7.078
REMARK INTER:                  -4.964
REMARK INTRA:                  -2.114
REMARK UNBOUND:                -2.784
REMARK SMILES Cc1cc(C)c(-n2cc(C)nn2)c(C)c1
REMARK SMILES IDX 6 1 4 2 5 3 3 4 2 5 1 6 15 7 13 8 14 9 7 10 10 11 9 12 8 13
REMARK SMILES IDX 11 14 12 15
REMARK H PARENT
REMARK Flexibility Score: inf
ROOT
ATOM      1  C   UNL     1      26.886  37.614   7.889  1.00  0.00     0.072 A 
ATOM      2  C   UNL     1      26.666  37.374   9.231  1.00  0.00    -0.025 A 
ATOM      3  C   UNL     1      26.209  38.485  10.125  1.00  0.00     0.047 C 
ATOM      4  C   UNL     1      26.865  36.103   9.764  1.00  0.00     0.009 A 
ATOM      5  C   UNL     1      27.286  35.051   8.975  1.00  0.00    -0.050 A 
ATOM      6  C   UNL     1      27.498  33.687   9.557  1.00  0.00     0.044 C 
ATOM      7  C   UNL     1      27.507  35.279   7.644  1.00  0.00     0.009 A 
ATOM      8  C   UNL     1      27.310  36.537   7.113  1.00  0.00    -0.025 A 
ATOM      9  C   UNL     1      27.554  36.765   5.668  1.00  0.00     0.047 C 
ENDROOT
BRANCH   1  10
ATOM     10  N   UNL     1      26.690  38.905   7.316  1.00  0.00    -0.220 N 
ATOM     11  C   UNL     1      24.925  41.705   5.763  1.00  0.00     0.070 C 
ATOM     12  C   UNL     1      25.845  40.723   6.378  1.00  0.00     0.080 A 
ATOM     13  C   UNL     1      25.568  39.453   6.833  1.00  0.00     0.140 A 
ATOM     14  N   UNL     1      27.164  40.911   6.605  1.00  0.00    -0.135 NA
ATOM     15  N   UNL     1      27.650  39.824   7.161  1.00  0.00    -0.062 NA
ENDBRANCH   1  10
TORSDOF 1
BEGIN_RES LYS A 135
REMARK  4 active torsions:
REMARK  status: ('A' for Active; 'I' for Inactive)
REMARK    1  A    between atoms: CA   and  CB  
REMARK    2  A    between atoms: CB   and  CG  
REMARK    3  A    between atoms: CG   and  CD  
REMARK    4  A    between atoms: CD   and  CE  
ROOT
ATOM      1  CA  LYS A 135      33.193  34.663   9.290  1.00 25.02     0.186 C 
ENDROOT
BRANCH   1   2
ATOM      2  CB  LYS A 135      32.060  35.360  10.034  1.00 26.63     0.034 C 
BRANCH   2   3
ATOM      3  CG  LYS A 135      30.818  35.546   9.202  1.00 29.45     0.005 C 
BRANCH   3   4
ATOM      4  CD  LYS A 135      30.542  37.025   8.973  1.00 32.00     0.041 C 
BRANCH   4   5
ATOM      5  CE  LYS A 135      30.936  37.835  10.193  1.00 34.25     0.338 C 
ATOM      6  NZ  LYS A 135      29.778  38.023  11.110  1.00 35.99     0.618 N 
ENDBRANCH   4   5
ENDBRANCH   3   4
ENDBRANCH   2   3
ENDBRANCH   1   2
END_RES LYS A 135
BEGIN_RES TYR A 136
REMARK  2 active torsions:
REMARK  status: ('A' for Active; 'I' for Inactive)
REMARK    5  A    between atoms: CA   and  CB  
REMARK    6  A    between atoms: CB   and  CG  
ROOT
ATOM      7  CA  TYR A 136      36.583  36.399   8.994  1.00 26.14     0.191 C 
ENDROOT
BRANCH   7   8
ATOM      8  CB  TYR A 136      37.367  36.835  10.240  1.00 28.16     0.060 C 
BRANCH   8   9
ATOM      9  CG  TYR A 136      37.197  38.302  10.549  1.00 31.88    -0.020 A 
ATOM     10  CD2 TYR A 136      37.741  38.866  11.705  1.00 32.67    -0.002 A 
ATOM     11  CE2 TYR A 136      37.576  40.230  11.983  1.00 33.89     0.027 A 
ATOM     12  CZ  TYR A 136      36.859  41.037  11.096  1.00 34.34     0.131 A 
ATOM     13  OH  TYR A 136      36.689  42.391  11.348  1.00 35.14    -0.190 OA
ATOM     14  CE1 TYR A 136      36.311  40.493   9.944  1.00 35.01     0.027 A 
ATOM     15  CD1 TYR A 136      36.476  39.132   9.680  1.00 33.57    -0.002 A 
ENDBRANCH   8   9
ENDBRANCH   7   8
END_RES TYR A 136
BEGIN_RES ASN A 133
REMARK  2 active torsions:
REMARK  status: ('A' for Active; 'I' for Inactive)
REMARK    7  A    between atoms: CA   and  CB  
REMARK    8  A    between atoms: CB   and  CG  
ROOT
ATOM     16  CA  ASN A 133      31.225  30.257  11.749  1.00 18.15     0.196 C 
ENDROOT
BRANCH  16  17
ATOM     17  CB  ASN A 133      30.092  31.240  11.460  1.00 18.27     0.126 C 
BRANCH  17  18
ATOM     18  CG  ASN A 133      28.750  30.584  11.363  1.00 18.94     0.276 C 
ATOM     19  OD1 ASN A 133      28.561  29.624  10.613  1.00 18.09    -0.269 OA
ATOM     20  ND2 ASN A 133      27.791  31.102  12.130  1.00 18.93    -0.107 N 
ENDBRANCH  17  18
ENDBRANCH  16  17
END_RES ASN A 133
