REMARK VINA RESULT:    -3.231      2.606      4.680
REMARK INTER + INTRA:          -6.668
REMARK INTER:                  -3.432
REMARK INTRA:                  -3.236
REMARK UNBOUND:                -3.249
REMARK SMILES Cc1cn(C2CCN(C)CC2)nn1
REMARK SMILES IDX 5 1 6 2 7 3 8 4 9 5 10 6 11 7 4 8 1 9 2 10 3 11 13 12 12 13
REMARK H PARENT
REMARK Flexibility Score: inf
ROOT
ATOM      1  C   UNL     1      23.507  36.940  -2.008  1.00  0.00     0.111 C 
ATOM      2  C   UNL     1      23.765  35.478  -2.223  1.00  0.00     0.043 C 
ATOM      3  C   UNL     1      22.996  34.725  -1.136  1.00  0.00     0.086 C 
ATOM      4  N   UNL     1      21.644  35.128  -1.225  1.00  0.00    -0.306 NA
ATOM      5  C   UNL     1      20.661  34.162  -0.939  1.00  0.00     0.105 C 
ATOM      6  C   UNL     1      21.358  36.469  -0.893  1.00  0.00     0.086 C 
ATOM      7  C   UNL     1      22.687  37.227  -0.778  1.00  0.00     0.043 C 
ENDROOT
BRANCH   1   8
ATOM      8  N   UNL     1      24.792  37.599  -1.887  1.00  0.00    -0.249 N 
ATOM      9  C   UNL     1      28.340  37.948  -2.425  1.00  0.00     0.070 C 
ATOM     10  C   UNL     1      26.911  38.070  -2.053  1.00  0.00     0.080 A 
ATOM     11  C   UNL     1      25.943  37.158  -2.391  1.00  0.00     0.134 A 
ATOM     12  N   UNL     1      26.318  39.046  -1.351  1.00  0.00    -0.136 NA
ATOM     13  N   UNL     1      25.042  38.729  -1.270  1.00  0.00    -0.067 NA
ENDBRANCH   1   8
TORSDOF 1
BEGIN_RES LYS A 135
REMARK  4 active torsions:
REMARK  status: ('A' for Active; 'I' for Inactive)
REMARK    1  A    between atoms: CA   and  CB  
REMARK    2  A    between atoms: CB   and  CG  
REMARK    3  A    between atoms: CG   and  CD  
REMARK    4  A    between atoms: CD   and  CE  
ROOT
ATOM      1  CA  LYS A 135      33.193  34.663   9.290  1.00 25.02     0.186 C 
ENDROOT
BRANCH   1   2
ATOM      2  CB  LYS A 135      32.060  35.360  10.034  1.00 26.63     0.034 C 
BRANCH   2   3
ATOM      3  CG  LYS A 135      30.844  35.612   9.180  1.00 29.45     0.005 C 
BRANCH   3   4
ATOM      4  CD  LYS A 135      30.239  34.300   8.707  1.00 32.00     0.041 C 
BRANCH   4   5
ATOM      5  CE  LYS A 135      28.743  34.445   8.505  1.00 34.25     0.338 C 
ATOM      6  NZ  LYS A 135      27.985  33.747   9.581  1.00 35.99     0.618 N 
ENDBRANCH   4   5
ENDBRANCH   3   4
ENDBRANCH   2   3
ENDBRANCH   1   2
END_RES LYS A 135
BEGIN_RES TYR A 136
REMARK  2 active torsions:
REMARK  status: ('A' for Active; 'I' for Inactive)
REMARK    5  A    between atoms: CA   and  CB  
REMARK    6  A    between atoms: CB   and  CG  
ROOT
ATOM      7  CA  TYR A 136      36.583  36.399   8.994  1.00 26.14     0.191 C 
ENDROOT
BRANCH   7   8
ATOM      8  CB  TYR A 136      37.367  36.835  10.240  1.00 28.16     0.060 C 
BRANCH   8   9
ATOM      9  CG  TYR A 136      37.213  38.306  10.537  1.00 31.88    -0.020 A 
ATOM     10  CD2 TYR A 136      36.364  38.755  11.551  1.00 32.67    -0.002 A 
ATOM     11  CE2 TYR A 136      36.226  40.124  11.817  1.00 33.89     0.027 A 
ATOM     12  CZ  TYR A 136      36.946  41.053  11.062  1.00 34.34     0.131 A 
ATOM     13  OH  TYR A 136      36.831  42.413  11.313  1.00 35.14    -0.190 OA
ATOM     14  CE1 TYR A 136      37.794  40.625  10.050  1.00 35.01     0.027 A 
ATOM     15  CD1 TYR A 136      37.917  39.260   9.790  1.00 33.57    -0.002 A 
ENDBRANCH   8   9
ENDBRANCH   7   8
END_RES TYR A 136
BEGIN_RES ASN A 133
REMARK  2 active torsions:
REMARK  status: ('A' for Active; 'I' for Inactive)
REMARK    7  A    between atoms: CA   and  CB  
REMARK    8  A    between atoms: CB   and  CG  
ROOT
ATOM     16  CA  ASN A 133      31.225  30.257  11.749  1.00 18.15     0.196 C 
ENDROOT
BRANCH  16  17
ATOM     17  CB  ASN A 133      30.092  31.240  11.460  1.00 18.27     0.126 C 
BRANCH  17  18
ATOM     18  CG  ASN A 133      28.751  30.582  11.353  1.00 18.94     0.276 C 
ATOM     19  OD1 ASN A 133      28.577  29.603  10.626  1.00 18.09    -0.269 OA
ATOM     20  ND2 ASN A 133      27.777  31.122  12.084  1.00 18.93    -0.107 N 
ENDBRANCH  17  18
ENDBRANCH  16  17
END_RES ASN A 133
