REMARK VINA RESULT:    -6.433      1.706      2.320
REMARK INTER + INTRA:          -9.365
REMARK INTER:                  -6.048
REMARK INTRA:                  -3.317
REMARK UNBOUND:                -1.804
REMARK SMILES Cc1cn(C(C)(C)C(=O)c2c[nH]c3ccccc23)nn1
REMARK SMILES IDX 5 1 6 2 7 3 4 4 1 5 2 6 3 7 20 8 19 9 8 10 9 11 10 12 11 13
REMARK SMILES IDX 18 14 12 15 13 16 17 17 14 19 16 20 15 21
REMARK H PARENT 12 18
REMARK Flexibility Score: inf
ROOT
ATOM      1  C   UNL     1      38.673  34.213  12.898  1.00  0.00     0.122 C 
ATOM      2  C   UNL     1      38.446  32.765  12.441  1.00  0.00     0.046 C 
ATOM      3  C   UNL     1      38.463  35.170  11.764  1.00  0.00     0.046 C 
ENDROOT
BRANCH   1   4
ATOM      4  N   UNL     1      40.105  34.251  13.236  1.00  0.00    -0.239 N 
ATOM      5  C   UNL     1      43.698  33.701  12.713  1.00  0.00     0.070 C 
ATOM      6  C   UNL     1      42.315  34.041  13.187  1.00  0.00     0.080 A 
ATOM      7  C   UNL     1      41.140  33.816  12.495  1.00  0.00     0.135 A 
ATOM      8  N   UNL     1      41.944  34.613  14.340  1.00  0.00    -0.136 NA
ATOM      9  N   UNL     1      40.633  34.726  14.346  1.00  0.00    -0.066 NA
ENDBRANCH   1   4
BRANCH   1  10
ATOM     10  C   UNL     1      37.839  34.445  14.073  1.00  0.00     0.192 C 
ATOM     11  O   UNL     1      37.658  33.584  14.993  1.00  0.00    -0.291 OA
BRANCH  10  12
ATOM     12  C   UNL     1      37.157  35.721  14.233  1.00  0.00     0.045 A 
ATOM     13  C   UNL     1      37.633  36.828  14.946  1.00  0.00     0.095 A 
ATOM     14  C   UNL     1      35.922  36.101  13.756  1.00  0.00     0.010 A 
ATOM     15  N   UNL     1      36.729  37.814  14.898  1.00  0.00    -0.360 N 
ATOM     16  C   UNL     1      35.663  37.398  14.172  1.00  0.00     0.046 A 
ATOM     17  C   UNL     1      34.972  35.488  12.997  1.00  0.00     0.011 A 
ATOM     18  H   UNL     1      36.795  38.775  15.339  1.00  0.00     0.166 HD
ATOM     19  C   UNL     1      34.500  38.058  13.846  1.00  0.00     0.027 A 
ATOM     20  C   UNL     1      33.787  36.131  12.651  1.00  0.00     0.001 A 
ATOM     21  C   UNL     1      33.571  37.411  13.084  1.00  0.00     0.002 A 
ENDBRANCH  10  12
ENDBRANCH   1  10
TORSDOF 3
BEGIN_RES LYS A 135
REMARK  4 active torsions:
REMARK  status: ('A' for Active; 'I' for Inactive)
REMARK    1  A    between atoms: CA   and  CB  
REMARK    2  A    between atoms: CB   and  CG  
REMARK    3  A    between atoms: CG   and  CD  
REMARK    4  A    between atoms: CD   and  CE  
ROOT
ATOM      1  CA  LYS A 135      33.193  34.663   9.290  1.00 25.02     0.186 C 
ENDROOT
BRANCH   1   2
ATOM      2  CB  LYS A 135      32.060  35.360  10.034  1.00 26.63     0.034 C 
BRANCH   2   3
ATOM      3  CG  LYS A 135      30.703  34.767   9.757  1.00 29.45     0.005 C 
BRANCH   3   4
ATOM      4  CD  LYS A 135      30.497  34.574   8.262  1.00 32.00     0.041 C 
BRANCH   4   5
ATOM      5  CE  LYS A 135      29.076  34.931   7.870  1.00 34.25     0.338 C 
ATOM      6  NZ  LYS A 135      28.474  35.884   8.843  1.00 35.99     0.618 N 
ENDBRANCH   4   5
ENDBRANCH   3   4
ENDBRANCH   2   3
ENDBRANCH   1   2
END_RES LYS A 135
BEGIN_RES TYR A 136
REMARK  2 active torsions:
REMARK  status: ('A' for Active; 'I' for Inactive)
REMARK    5  A    between atoms: CA   and  CB  
REMARK    6  A    between atoms: CB   and  CG  
ROOT
ATOM      7  CA  TYR A 136      36.583  36.399   8.994  1.00 26.14     0.191 C 
ENDROOT
BRANCH   7   8
ATOM      8  CB  TYR A 136      37.367  36.835  10.240  1.00 28.16     0.060 C 
BRANCH   8   9
ATOM      9  CG  TYR A 136      36.939  38.189  10.751  1.00 31.88    -0.020 A 
ATOM     10  CD2 TYR A 136      35.721  38.755  10.366  1.00 32.67    -0.002 A 
ATOM     11  CE2 TYR A 136      35.334  40.014  10.845  1.00 33.89     0.027 A 
ATOM     12  CZ  TYR A 136      36.172  40.713  11.716  1.00 34.34     0.131 A 
ATOM     13  OH  TYR A 136      35.806  41.958  12.208  1.00 35.14    -0.190 OA
ATOM     14  CE1 TYR A 136      37.386  40.166  12.108  1.00 35.01     0.027 A 
ATOM     15  CD1 TYR A 136      37.764  38.914  11.619  1.00 33.57    -0.002 A 
ENDBRANCH   8   9
ENDBRANCH   7   8
END_RES TYR A 136
BEGIN_RES ASN A 133
REMARK  2 active torsions:
REMARK  status: ('A' for Active; 'I' for Inactive)
REMARK    7  A    between atoms: CA   and  CB  
REMARK    8  A    between atoms: CB   and  CG  
ROOT
ATOM     16  CA  ASN A 133      31.225  30.257  11.749  1.00 18.15     0.196 C 
ENDROOT
BRANCH  16  17
ATOM     17  CB  ASN A 133      30.092  31.240  11.460  1.00 18.27     0.126 C 
BRANCH  17  18
ATOM     18  CG  ASN A 133      28.754  30.580  11.330  1.00 18.94     0.276 C 
ATOM     19  OD1 ASN A 133      28.585  29.625  10.570  1.00 18.09    -0.269 OA
ATOM     20  ND2 ASN A 133      27.778  31.089  12.080  1.00 18.93    -0.107 N 
ENDBRANCH  17  18
ENDBRANCH  16  17
END_RES ASN A 133
