REMARK VINA RESULT:    -3.366      2.558      4.182
REMARK INTER + INTRA:          -7.971
REMARK INTER:                  -4.696
REMARK INTRA:                  -3.276
REMARK UNBOUND:                -3.327
REMARK SMILES Cc1cn(CCCCCC(=O)O)nn1
REMARK SMILES IDX 7 1 6 2 5 3 4 4 1 5 2 6 3 7 14 8 13 9 8 10 9 11 10 12 11 13
REMARK SMILES IDX 12 14
REMARK H PARENT 12 15
REMARK Flexibility Score: inf
ROOT
ATOM      1  C   UNL     1      33.439  38.324  12.980  1.00  0.00     0.002 C 
ENDROOT
BRANCH   1   2
ATOM      2  C   UNL     1      32.901  39.283  11.938  1.00  0.00     0.024 C 
BRANCH   2   3
ATOM      3  C   UNL     1      32.781  38.491  10.637  1.00  0.00     0.146 C 
BRANCH   3   4
ATOM      4  N   UNL     1      31.568  38.902   9.918  1.00  0.00    -0.252 N 
ATOM      5  C   UNL     1      29.075  38.521   7.251  1.00  0.00     0.070 C 
ATOM      6  C   UNL     1      29.930  38.911   8.418  1.00  0.00     0.080 A 
ATOM      7  C   UNL     1      31.077  38.259   8.839  1.00  0.00     0.134 A 
ATOM      8  N   UNL     1      29.772  39.932   9.266  1.00  0.00    -0.136 NA
ATOM      9  N   UNL     1      30.764  39.909  10.158  1.00  0.00    -0.067 NA
ENDBRANCH   3   4
ENDBRANCH   2   3
ENDBRANCH   1   2
BRANCH   1  10
ATOM     10  C   UNL     1      33.599  36.928  12.404  1.00  0.00     0.012 C 
BRANCH  10  11
ATOM     11  C   UNL     1      34.706  36.249  13.161  1.00  0.00     0.122 C 
BRANCH  11  12
ATOM     12  C   UNL     1      34.376  34.840  13.475  1.00  0.00     0.303 C 
ATOM     13  O   UNL     1      33.498  34.610  14.342  1.00  0.00    -0.252 OA
BRANCH  12  14
ATOM     14  O   UNL     1      34.990  33.768  12.853  1.00  0.00    -0.481 OA
ATOM     15  H   UNL     1      35.952  33.793  12.537  1.00  0.00     0.296 HD
ENDBRANCH  12  14
ENDBRANCH  11  12
ENDBRANCH  10  11
ENDBRANCH   1  10
TORSDOF 7
BEGIN_RES LYS A 135
REMARK  4 active torsions:
REMARK  status: ('A' for Active; 'I' for Inactive)
REMARK    1  A    between atoms: CA   and  CB  
REMARK    2  A    between atoms: CB   and  CG  
REMARK    3  A    between atoms: CG   and  CD  
REMARK    4  A    between atoms: CD   and  CE  
ROOT
ATOM      1  CA  LYS A 135      33.193  34.663   9.290  1.00 25.02     0.186 C 
ENDROOT
BRANCH   1   2
ATOM      2  CB  LYS A 135      32.060  35.360  10.034  1.00 26.63     0.034 C 
BRANCH   2   3
ATOM      3  CG  LYS A 135      30.709  34.735   9.797  1.00 29.45     0.005 C 
BRANCH   3   4
ATOM      4  CD  LYS A 135      30.476  34.508   8.312  1.00 32.00     0.041 C 
BRANCH   4   5
ATOM      5  CE  LYS A 135      29.043  34.838   7.941  1.00 34.25     0.338 C 
ATOM      6  NZ  LYS A 135      28.085  34.210   8.893  1.00 35.99     0.618 N 
ENDBRANCH   4   5
ENDBRANCH   3   4
ENDBRANCH   2   3
ENDBRANCH   1   2
END_RES LYS A 135
BEGIN_RES TYR A 136
REMARK  2 active torsions:
REMARK  status: ('A' for Active; 'I' for Inactive)
REMARK    5  A    between atoms: CA   and  CB  
REMARK    6  A    between atoms: CB   and  CG  
ROOT
ATOM      7  CA  TYR A 136      36.583  36.399   8.994  1.00 26.14     0.191 C 
ENDROOT
BRANCH   7   8
ATOM      8  CB  TYR A 136      37.367  36.835  10.240  1.00 28.16     0.060 C 
BRANCH   8   9
ATOM      9  CG  TYR A 136      36.974  38.210  10.721  1.00 31.88    -0.020 A 
ATOM     10  CD2 TYR A 136      37.206  38.608  12.040  1.00 32.67    -0.002 A 
ATOM     11  CE2 TYR A 136      36.835  39.887  12.477  1.00 33.89     0.027 A 
ATOM     12  CZ  TYR A 136      36.226  40.775  11.588  1.00 34.34     0.131 A 
ATOM     13  OH  TYR A 136      35.856  42.049  11.997  1.00 35.14    -0.190 OA
ATOM     14  CE1 TYR A 136      35.986  40.396  10.275  1.00 35.01     0.027 A 
ATOM     15  CD1 TYR A 136      36.354  39.117   9.852  1.00 33.57    -0.002 A 
ENDBRANCH   8   9
ENDBRANCH   7   8
END_RES TYR A 136
BEGIN_RES ASN A 133
REMARK  2 active torsions:
REMARK  status: ('A' for Active; 'I' for Inactive)
REMARK    7  A    between atoms: CA   and  CB  
REMARK    8  A    between atoms: CB   and  CG  
ROOT
ATOM     16  CA  ASN A 133      31.225  30.257  11.749  1.00 18.15     0.196 C 
ENDROOT
BRANCH  16  17
ATOM     17  CB  ASN A 133      30.092  31.240  11.460  1.00 18.27     0.126 C 
BRANCH  17  18
ATOM     18  CG  ASN A 133      28.747  30.586  11.382  1.00 18.94     0.276 C 
ATOM     19  OD1 ASN A 133      28.561  29.590  10.681  1.00 18.09    -0.269 OA
ATOM     20  ND2 ASN A 133      27.783  31.149  12.110  1.00 18.93    -0.107 N 
ENDBRANCH  17  18
ENDBRANCH  16  17
END_RES ASN A 133
