REMARK VINA RESULT:    -3.364      7.606     12.202
REMARK INTER + INTRA:          -6.710
REMARK INTER:                  -3.613
REMARK INTRA:                  -3.097
REMARK UNBOUND:                -3.149
REMARK SMILES Cc1cn(-c2ccncc2)nn1
REMARK SMILES IDX 1 1 2 2 3 3 4 4 11 5 12 6 5 7 6 8 10 9 7 10 9 11 8 12
REMARK H PARENT
REMARK Flexibility Score: inf
ROOT
ATOM      1  C   UNL     1      42.492  37.252   6.151  1.00  0.00     0.070 C 
ATOM      2  C   UNL     1      41.334  36.864   5.323  1.00  0.00     0.080 A 
ATOM      3  C   UNL     1      40.364  37.682   4.759  1.00  0.00     0.140 A 
ATOM      4  N   UNL     1      39.492  36.919   4.083  1.00  0.00    -0.220 N 
ATOM      5  N   UNL     1      39.900  35.668   4.216  1.00  0.00    -0.062 NA
ATOM      6  N   UNL     1      40.999  35.615   4.955  1.00  0.00    -0.135 NA
ENDROOT
BRANCH   4   7
ATOM      7  C   UNL     1      38.355  37.388   3.365  1.00  0.00     0.069 A 
ATOM      8  C   UNL     1      37.179  37.684   4.033  1.00  0.00     0.048 A 
ATOM      9  C   UNL     1      38.354  37.570   2.002  1.00  0.00     0.048 A 
ATOM     10  C   UNL     1      36.092  38.133   3.336  1.00  0.00     0.113 A 
ATOM     11  C   UNL     1      37.258  38.022   1.303  1.00  0.00     0.113 A 
ATOM     12  N   UNL     1      36.149  38.292   2.010  1.00  0.00    -0.265 NA
ENDBRANCH   4   7
TORSDOF 1
BEGIN_RES LYS A 135
REMARK  4 active torsions:
REMARK  status: ('A' for Active; 'I' for Inactive)
REMARK    1  A    between atoms: CA   and  CB  
REMARK    2  A    between atoms: CB   and  CG  
REMARK    3  A    between atoms: CG   and  CD  
REMARK    4  A    between atoms: CD   and  CE  
ROOT
ATOM      1  CA  LYS A 135      33.193  34.663   9.290  1.00 25.02     0.186 C 
ENDROOT
BRANCH   1   2
ATOM      2  CB  LYS A 135      32.060  35.360  10.034  1.00 26.63     0.034 C 
BRANCH   2   3
ATOM      3  CG  LYS A 135      30.763  34.594  10.011  1.00 29.45     0.005 C 
BRANCH   3   4
ATOM      4  CD  LYS A 135      30.344  34.290   8.580  1.00 32.00     0.041 C 
BRANCH   4   5
ATOM      5  CE  LYS A 135      28.876  34.611   8.375  1.00 34.25     0.338 C 
ATOM      6  NZ  LYS A 135      28.022  33.851   9.330  1.00 35.99     0.618 N 
ENDBRANCH   4   5
ENDBRANCH   3   4
ENDBRANCH   2   3
ENDBRANCH   1   2
END_RES LYS A 135
BEGIN_RES TYR A 136
REMARK  2 active torsions:
REMARK  status: ('A' for Active; 'I' for Inactive)
REMARK    5  A    between atoms: CA   and  CB  
REMARK    6  A    between atoms: CB   and  CG  
ROOT
ATOM      7  CA  TYR A 136      36.583  36.399   8.994  1.00 26.14     0.191 C 
ENDROOT
BRANCH   7   8
ATOM      8  CB  TYR A 136      37.367  36.835  10.240  1.00 28.16     0.060 C 
BRANCH   8   9
ATOM      9  CG  TYR A 136      37.287  38.322  10.485  1.00 31.88    -0.020 A 
ATOM     10  CD2 TYR A 136      36.400  39.126   9.766  1.00 32.67    -0.002 A 
ATOM     11  CE2 TYR A 136      36.335  40.507  10.000  1.00 33.89     0.027 A 
ATOM     12  CZ  TYR A 136      37.165  41.087  10.962  1.00 34.34     0.131 A 
ATOM     13  OH  TYR A 136      37.112  42.451  11.216  1.00 35.14    -0.190 OA
ATOM     14  CE1 TYR A 136      38.053  40.303  11.685  1.00 35.01     0.027 A 
ATOM     15  CD1 TYR A 136      38.113  38.931  11.438  1.00 33.57    -0.002 A 
ENDBRANCH   8   9
ENDBRANCH   7   8
END_RES TYR A 136
BEGIN_RES ASN A 133
REMARK  2 active torsions:
REMARK  status: ('A' for Active; 'I' for Inactive)
REMARK    7  A    between atoms: CA   and  CB  
REMARK    8  A    between atoms: CB   and  CG  
ROOT
ATOM     16  CA  ASN A 133      31.225  30.257  11.749  1.00 18.15     0.196 C 
ENDROOT
BRANCH  16  17
ATOM     17  CB  ASN A 133      30.092  31.240  11.460  1.00 18.27     0.126 C 
BRANCH  17  18
ATOM     18  CG  ASN A 133      28.757  30.578  11.313  1.00 18.94     0.276 C 
ATOM     19  OD1 ASN A 133      28.605  29.607  10.570  1.00 18.09    -0.269 OA
ATOM     20  ND2 ASN A 133      27.764  31.104  12.029  1.00 18.93    -0.107 N 
ENDBRANCH  17  18
ENDBRANCH  16  17
END_RES ASN A 133
