REMARK VINA RESULT:    -4.867      4.267      7.195
REMARK INTER + INTRA:          -9.360
REMARK INTER:                  -4.751
REMARK INTRA:                  -4.609
REMARK UNBOUND:                -3.071
REMARK SMILES Cc1cn(C[C@@H](C)CN2CCN(c3ccc(Cl)cc3)CC2)nn1
REMARK SMILES IDX 6 1 7 2 5 3 4 4 1 5 2 6 3 7 23 8 22 9 8 10 9 11 10 12 21 13
REMARK SMILES IDX 11 14 20 15 12 16 13 17 14 18 19 19 15 20 18 21 16 22 17 23
REMARK H PARENT
REMARK Flexibility Score: inf
ROOT
ATOM      1  C   UNL     1      26.595  29.362  18.806  1.00  0.00     0.022 C 
ATOM      2  C   UNL     1      25.876  28.156  19.335  1.00  0.00     0.011 C 
ENDROOT
BRANCH   1   3
ATOM      3  C   UNL     1      27.113  30.205  19.920  1.00  0.00     0.150 C 
BRANCH   3   4
ATOM      4  N   UNL     1      28.468  30.643  19.674  1.00  0.00    -0.252 N 
ATOM      5  C   UNL     1      30.936  33.257  19.054  1.00  0.00     0.070 C 
ATOM      6  C   UNL     1      30.156  31.998  19.291  1.00  0.00     0.080 A 
ATOM      7  C   UNL     1      28.795  31.952  19.500  1.00  0.00     0.134 A 
ATOM      8  N   UNL     1      30.598  30.728  19.348  1.00  0.00    -0.136 NA
ATOM      9  N   UNL     1      29.552  29.919  19.582  1.00  0.00    -0.067 NA
ENDBRANCH   3   4
ENDBRANCH   1   3
BRANCH   1  10
ATOM     10  C   UNL     1      25.667  30.221  17.937  1.00  0.00     0.089 C 
BRANCH  10  11
ATOM     11  N   UNL     1      26.420  30.689  16.850  1.00  0.00    -0.299 NA
ATOM     12  C   UNL     1      27.294  29.833  16.172  1.00  0.00     0.106 C 
ATOM     13  C   UNL     1      26.291  32.014  16.413  1.00  0.00     0.106 C 
ATOM     14  C   UNL     1      28.680  30.438  15.976  1.00  0.00     0.132 C 
ATOM     15  C   UNL     1      27.150  32.170  15.149  1.00  0.00     0.132 C 
ATOM     16  N   UNL     1      28.488  31.816  15.566  1.00  0.00    -0.369 N 
BRANCH  16  17
ATOM     17  C   UNL     1      29.571  32.734  15.585  1.00  0.00     0.037 A 
ATOM     18  C   UNL     1      29.449  34.091  15.729  1.00  0.00     0.027 A 
ATOM     19  C   UNL     1      30.862  32.233  15.442  1.00  0.00     0.027 A 
ATOM     20  C   UNL     1      30.517  34.968  15.740  1.00  0.00     0.022 A 
ATOM     21  C   UNL     1      31.949  33.078  15.449  1.00  0.00     0.022 A 
ATOM     22  C   UNL     1      31.782  34.450  15.598  1.00  0.00     0.041 A 
ATOM     23  Cl  UNL     1      33.195  35.477  15.598  1.00  0.00    -0.084 Cl
ENDBRANCH  16  17
ENDBRANCH  10  11
ENDBRANCH   1  10
TORSDOF 5
BEGIN_RES LYS A 135
REMARK  4 active torsions:
REMARK  status: ('A' for Active; 'I' for Inactive)
REMARK    1  A    between atoms: CA   and  CB  
REMARK    2  A    between atoms: CB   and  CG  
REMARK    3  A    between atoms: CG   and  CD  
REMARK    4  A    between atoms: CD   and  CE  
ROOT
ATOM      1  CA  LYS A 135      33.193  34.663   9.290  1.00 25.02     0.186 C 
ENDROOT
BRANCH   1   2
ATOM      2  CB  LYS A 135      32.060  35.360  10.034  1.00 26.63     0.034 C 
BRANCH   2   3
ATOM      3  CG  LYS A 135      30.727  34.673   9.882  1.00 29.45     0.005 C 
BRANCH   3   4
ATOM      4  CD  LYS A 135      30.309  34.631   8.421  1.00 32.00     0.041 C 
BRANCH   4   5
ATOM      5  CE  LYS A 135      28.797  34.616   8.300  1.00 34.25     0.338 C 
ATOM      6  NZ  LYS A 135      28.176  33.869   9.429  1.00 35.99     0.618 N 
ENDBRANCH   4   5
ENDBRANCH   3   4
ENDBRANCH   2   3
ENDBRANCH   1   2
END_RES LYS A 135
BEGIN_RES TYR A 136
REMARK  2 active torsions:
REMARK  status: ('A' for Active; 'I' for Inactive)
REMARK    5  A    between atoms: CA   and  CB  
REMARK    6  A    between atoms: CB   and  CG  
ROOT
ATOM      7  CA  TYR A 136      36.583  36.399   8.994  1.00 26.14     0.191 C 
ENDROOT
BRANCH   7   8
ATOM      8  CB  TYR A 136      37.367  36.835  10.240  1.00 28.16     0.060 C 
BRANCH   8   9
ATOM      9  CG  TYR A 136      37.172  38.295  10.566  1.00 31.88    -0.020 A 
ATOM     10  CD2 TYR A 136      36.350  38.697  11.621  1.00 32.67    -0.002 A 
ATOM     11  CE2 TYR A 136      36.174  40.056  11.915  1.00 33.89     0.027 A 
ATOM     12  CZ  TYR A 136      36.827  41.022  11.146  1.00 34.34     0.131 A 
ATOM     13  OH  TYR A 136      36.674  42.373  11.424  1.00 35.14    -0.190 OA
ATOM     14  CE1 TYR A 136      37.647  40.641  10.094  1.00 35.01     0.027 A 
ATOM     15  CD1 TYR A 136      37.809  39.285   9.807  1.00 33.57    -0.002 A 
ENDBRANCH   8   9
ENDBRANCH   7   8
END_RES TYR A 136
BEGIN_RES ASN A 133
REMARK  2 active torsions:
REMARK  status: ('A' for Active; 'I' for Inactive)
REMARK    7  A    between atoms: CA   and  CB  
REMARK    8  A    between atoms: CB   and  CG  
ROOT
ATOM     16  CA  ASN A 133      31.225  30.257  11.749  1.00 18.15     0.196 C 
ENDROOT
BRANCH  16  17
ATOM     17  CB  ASN A 133      30.092  31.240  11.460  1.00 18.27     0.126 C 
BRANCH  17  18
ATOM     18  CG  ASN A 133      28.764  30.574  11.273  1.00 18.94     0.276 C 
ATOM     19  OD1 ASN A 133      28.643  29.583  10.550  1.00 18.09    -0.269 OA
ATOM     20  ND2 ASN A 133      27.741  31.119  11.930  1.00 18.93    -0.107 N 
ENDBRANCH  17  18
ENDBRANCH  16  17
END_RES ASN A 133
