REMARK VINA RESULT:    -3.264      5.614      7.342
REMARK INTER + INTRA:          -7.165
REMARK INTER:                  -3.883
REMARK INTRA:                  -3.282
REMARK UNBOUND:                -3.424
REMARK SMILES Cc1cn(CC(=O)O)nn1
REMARK SMILES IDX 5 1 4 2 1 3 2 4 3 5 10 6 9 7 6 8 7 9 8 10
REMARK H PARENT 8 11
REMARK Flexibility Score: inf
ROOT
ATOM      1  C   UNL     1      36.603  34.982  14.192  1.00  0.00     0.268 C 
ENDROOT
BRANCH   1   2
ATOM      2  N   UNL     1      37.734  34.342  13.590  1.00  0.00    -0.241 N 
ATOM      3  C   UNL     1      41.194  33.783  12.493  1.00  0.00     0.070 C 
ATOM      4  C   UNL     1      39.769  33.823  12.844  1.00  0.00     0.080 A 
ATOM      5  C   UNL     1      39.022  34.758  13.512  1.00  0.00     0.134 A 
ATOM      6  N   UNL     1      38.888  32.837  12.527  1.00  0.00    -0.136 NA
ATOM      7  N   UNL     1      37.702  33.172  12.979  1.00  0.00    -0.067 NA
ENDBRANCH   1   2
BRANCH   1   8
ATOM      8  C   UNL     1      35.432  34.928  13.267  1.00  0.00     0.325 C 
ATOM      9  O   UNL     1      34.967  35.973  12.728  1.00  0.00    -0.250 OA
BRANCH   8  10
ATOM     10  O   UNL     1      34.803  33.738  12.957  1.00  0.00    -0.480 OA
ATOM     11  H   UNL     1      33.819  33.628  12.848  1.00  0.00     0.296 HD
ENDBRANCH   8  10
ENDBRANCH   1   8
TORSDOF 3
BEGIN_RES LYS A 135
REMARK  4 active torsions:
REMARK  status: ('A' for Active; 'I' for Inactive)
REMARK    1  A    between atoms: CA   and  CB  
REMARK    2  A    between atoms: CB   and  CG  
REMARK    3  A    between atoms: CG   and  CD  
REMARK    4  A    between atoms: CD   and  CE  
ROOT
ATOM      1  CA  LYS A 135      33.193  34.663   9.290  1.00 25.02     0.186 C 
ENDROOT
BRANCH   1   2
ATOM      2  CB  LYS A 135      32.060  35.360  10.034  1.00 26.63     0.034 C 
BRANCH   2   3
ATOM      3  CG  LYS A 135      30.876  35.685   9.161  1.00 29.45     0.005 C 
BRANCH   3   4
ATOM      4  CD  LYS A 135      30.288  34.417   8.560  1.00 32.00     0.041 C 
BRANCH   4   5
ATOM      5  CE  LYS A 135      28.834  34.630   8.185  1.00 34.25     0.338 C 
ATOM      6  NZ  LYS A 135      28.713  35.426   6.933  1.00 35.99     0.618 N 
ENDBRANCH   4   5
ENDBRANCH   3   4
ENDBRANCH   2   3
ENDBRANCH   1   2
END_RES LYS A 135
BEGIN_RES TYR A 136
REMARK  2 active torsions:
REMARK  status: ('A' for Active; 'I' for Inactive)
REMARK    5  A    between atoms: CA   and  CB  
REMARK    6  A    between atoms: CB   and  CG  
ROOT
ATOM      7  CA  TYR A 136      36.583  36.399   8.994  1.00 26.14     0.191 C 
ENDROOT
BRANCH   7   8
ATOM      8  CB  TYR A 136      37.367  36.835  10.240  1.00 28.16     0.060 C 
BRANCH   8   9
ATOM      9  CG  TYR A 136      37.075  38.260  10.640  1.00 31.88    -0.020 A 
ATOM     10  CD2 TYR A 136      36.431  39.139   9.766  1.00 32.67    -0.002 A 
ATOM     11  CE2 TYR A 136      36.165  40.462  10.147  1.00 33.89     0.027 A 
ATOM     12  CZ  TYR A 136      36.549  40.909  11.414  1.00 34.34     0.131 A 
ATOM     13  OH  TYR A 136      36.290  42.212  11.815  1.00 35.14    -0.190 OA
ATOM     14  CE1 TYR A 136      37.191  40.050  12.294  1.00 35.01     0.027 A 
ATOM     15  CD1 TYR A 136      37.455  38.737  11.901  1.00 33.57    -0.002 A 
ENDBRANCH   8   9
ENDBRANCH   7   8
END_RES TYR A 136
BEGIN_RES ASN A 133
REMARK  2 active torsions:
REMARK  status: ('A' for Active; 'I' for Inactive)
REMARK    7  A    between atoms: CA   and  CB  
REMARK    8  A    between atoms: CB   and  CG  
ROOT
ATOM     16  CA  ASN A 133      31.225  30.257  11.749  1.00 18.15     0.196 C 
ENDROOT
BRANCH  16  17
ATOM     17  CB  ASN A 133      30.092  31.240  11.460  1.00 18.27     0.126 C 
BRANCH  17  18
ATOM     18  CG  ASN A 133      28.752  30.582  11.346  1.00 18.94     0.276 C 
ATOM     19  OD1 ASN A 133      28.580  29.606  10.613  1.00 18.09    -0.269 OA
ATOM     20  ND2 ASN A 133      27.776  31.116  12.080  1.00 18.93    -0.107 N 
ENDBRANCH  17  18
ENDBRANCH  16  17
END_RES ASN A 133
