REMARK VINA RESULT:    -4.265      4.215      8.872
REMARK INTER + INTRA:          -8.779
REMARK INTER:                  -6.855
REMARK INTRA:                  -1.924
REMARK UNBOUND:                -3.516
REMARK SMILES Cc1cn(C(C)CC(=O)c2ccccc2)nn1
REMARK SMILES IDX 7 1 5 2 6 3 4 4 1 5 2 6 3 7 17 8 16 9 8 10 9 11 10 12 11 13
REMARK SMILES IDX 15 14 12 15 14 16 13 17
REMARK H PARENT
REMARK Flexibility Score: inf
ROOT
ATOM      1  C   UNL     1      26.365  36.513   7.534  1.00  0.00     0.108 C 
ENDROOT
BRANCH   1   2
ATOM      2  C   UNL     1      26.305  37.993   7.434  1.00  0.00     0.114 C 
ATOM      3  C   UNL     1      27.169  38.749   8.361  1.00  0.00     0.034 C 
BRANCH   2   4
ATOM      4  N   UNL     1      24.919  38.403   7.566  1.00  0.00    -0.249 N 
ATOM      5  C   UNL     1      21.468  37.628   8.391  1.00  0.00     0.070 C 
ATOM      6  C   UNL     1      22.751  38.232   7.998  1.00  0.00     0.080 A 
ATOM      7  C   UNL     1      23.954  37.555   7.971  1.00  0.00     0.134 A 
ATOM      8  N   UNL     1      23.035  39.486   7.602  1.00  0.00    -0.136 NA
ATOM      9  N   UNL     1      24.339  39.555   7.352  1.00  0.00    -0.067 NA
ENDBRANCH   2   4
ENDBRANCH   1   2
BRANCH   1  10
ATOM     10  C   UNL     1      27.566  35.899   6.950  1.00  0.00     0.164 C 
ATOM     11  O   UNL     1      27.895  35.977   5.751  1.00  0.00    -0.294 OA
BRANCH  10  12
ATOM     12  C   UNL     1      28.438  35.143   7.842  1.00  0.00     0.018 A 
ATOM     13  C   UNL     1      29.816  35.084   7.656  1.00  0.00     0.012 A 
ATOM     14  C   UNL     1      27.957  34.432   8.935  1.00  0.00     0.012 A 
ATOM     15  C   UNL     1      30.648  34.371   8.494  1.00  0.00     0.001 A 
ATOM     16  C   UNL     1      28.742  33.718   9.785  1.00  0.00     0.001 A 
ATOM     17  C   UNL     1      30.099  33.684   9.567  1.00  0.00     0.000 A 
ENDBRANCH  10  12
ENDBRANCH   1  10
TORSDOF 4
BEGIN_RES LYS A 135
REMARK  4 active torsions:
REMARK  status: ('A' for Active; 'I' for Inactive)
REMARK    1  A    between atoms: CA   and  CB  
REMARK    2  A    between atoms: CB   and  CG  
REMARK    3  A    between atoms: CG   and  CD  
REMARK    4  A    between atoms: CD   and  CE  
ROOT
ATOM      1  CA  LYS A 135      33.193  34.663   9.290  1.00 25.02     0.186 C 
ENDROOT
BRANCH   1   2
ATOM      2  CB  LYS A 135      32.060  35.360  10.034  1.00 26.63     0.034 C 
BRANCH   2   3
ATOM      3  CG  LYS A 135      32.500  36.032  11.309  1.00 29.45     0.005 C 
BRANCH   3   4
ATOM      4  CD  LYS A 135      31.747  37.337  11.515  1.00 32.00     0.041 C 
BRANCH   4   5
ATOM      5  CE  LYS A 135      31.884  38.230  10.297  1.00 34.25     0.338 C 
ATOM      6  NZ  LYS A 135      31.078  39.473  10.449  1.00 35.99     0.618 N 
ENDBRANCH   4   5
ENDBRANCH   3   4
ENDBRANCH   2   3
ENDBRANCH   1   2
END_RES LYS A 135
BEGIN_RES TYR A 136
REMARK  2 active torsions:
REMARK  status: ('A' for Active; 'I' for Inactive)
REMARK    5  A    between atoms: CA   and  CB  
REMARK    6  A    between atoms: CB   and  CG  
ROOT
ATOM      7  CA  TYR A 136      36.583  36.399   8.994  1.00 26.14     0.191 C 
ENDROOT
BRANCH   7   8
ATOM      8  CB  TYR A 136      37.367  36.835  10.240  1.00 28.16     0.060 C 
BRANCH   8   9
ATOM      9  CG  TYR A 136      36.496  37.524  11.262  1.00 31.88    -0.020 A 
ATOM     10  CD2 TYR A 136      36.309  36.982  12.535  1.00 32.67    -0.002 A 
ATOM     11  CE2 TYR A 136      35.497  37.630  13.477  1.00 33.89     0.027 A 
ATOM     12  CZ  TYR A 136      34.866  38.830  13.140  1.00 34.34     0.131 A 
ATOM     13  OH  TYR A 136      34.063  39.492  14.058  1.00 35.14    -0.190 OA
ATOM     14  CE1 TYR A 136      35.040  39.381  11.879  1.00 35.01     0.027 A 
ATOM     15  CD1 TYR A 136      35.846  38.724  10.948  1.00 33.57    -0.002 A 
ENDBRANCH   8   9
ENDBRANCH   7   8
END_RES TYR A 136
BEGIN_RES ASN A 133
REMARK  2 active torsions:
REMARK  status: ('A' for Active; 'I' for Inactive)
REMARK    7  A    between atoms: CA   and  CB  
REMARK    8  A    between atoms: CB   and  CG  
ROOT
ATOM     16  CA  ASN A 133      31.225  30.257  11.749  1.00 18.15     0.196 C 
ENDROOT
BRANCH  16  17
ATOM     17  CB  ASN A 133      30.092  31.240  11.460  1.00 18.27     0.126 C 
BRANCH  17  18
ATOM     18  CG  ASN A 133      28.750  30.584  11.362  1.00 18.94     0.276 C 
ATOM     19  OD1 ASN A 133      28.560  29.628  10.608  1.00 18.09    -0.269 OA
ATOM     20  ND2 ASN A 133      27.792  31.098  12.133  1.00 18.93    -0.107 N 
ENDBRANCH  17  18
ENDBRANCH  16  17
END_RES ASN A 133
