REMARK VINA RESULT:    -3.306      7.691     11.195
REMARK INTER + INTRA:          -6.367
REMARK INTER:                  -3.216
REMARK INTRA:                  -3.151
REMARK UNBOUND:                -2.867
REMARK SMILES Cc1cn(-c2ccc(Cl)cc2)nn1
REMARK SMILES IDX 5 1 6 2 7 3 8 4 9 5 10 6 11 7 4 8 1 9 2 10 3 11 13 12 12 13
REMARK H PARENT
REMARK Flexibility Score: inf
ROOT
ATOM      1  C   UNL     1      37.343  38.992   1.304  1.00  0.00     0.066 A 
ATOM      2  C   UNL     1      36.171  39.483   1.844  1.00  0.00     0.030 A 
ATOM      3  C   UNL     1      35.686  39.104   3.069  1.00  0.00     0.023 A 
ATOM      4  C   UNL     1      36.395  38.177   3.827  1.00  0.00     0.041 A 
ATOM      5  Cl  UNL     1      35.798  37.674   5.398  1.00  0.00    -0.084 Cl
ATOM      6  C   UNL     1      37.577  37.670   3.303  1.00  0.00     0.023 A 
ATOM      7  C   UNL     1      38.039  38.072   2.064  1.00  0.00     0.030 A 
ENDROOT
BRANCH   1   8
ATOM      8  N   UNL     1      37.826  39.401   0.030  1.00  0.00    -0.220 N 
ATOM      9  C   UNL     1      40.208  39.382  -2.771  1.00  0.00     0.070 C 
ATOM     10  C   UNL     1      39.117  39.565  -1.786  1.00  0.00     0.080 A 
ATOM     11  C   UNL     1      38.967  38.954  -0.560  1.00  0.00     0.140 A 
ATOM     12  N   UNL     1      38.057  40.376  -1.917  1.00  0.00    -0.135 NA
ATOM     13  N   UNL     1      37.309  40.262  -0.832  1.00  0.00    -0.062 NA
ENDBRANCH   1   8
TORSDOF 1
BEGIN_RES LYS A 135
REMARK  4 active torsions:
REMARK  status: ('A' for Active; 'I' for Inactive)
REMARK    1  A    between atoms: CA   and  CB  
REMARK    2  A    between atoms: CB   and  CG  
REMARK    3  A    between atoms: CG   and  CD  
REMARK    4  A    between atoms: CD   and  CE  
ROOT
ATOM      1  CA  LYS A 135      33.193  34.663   9.290  1.00 25.02     0.186 C 
ENDROOT
BRANCH   1   2
ATOM      2  CB  LYS A 135      32.060  35.360  10.034  1.00 26.63     0.034 C 
BRANCH   2   3
ATOM      3  CG  LYS A 135      30.708  34.741   9.789  1.00 29.45     0.005 C 
BRANCH   3   4
ATOM      4  CD  LYS A 135      30.411  34.674   8.299  1.00 32.00     0.041 C 
BRANCH   4   5
ATOM      5  CE  LYS A 135      28.919  34.787   8.048  1.00 34.25     0.338 C 
ATOM      6  NZ  LYS A 135      28.643  35.507   6.774  1.00 35.99     0.618 N 
ENDBRANCH   4   5
ENDBRANCH   3   4
ENDBRANCH   2   3
ENDBRANCH   1   2
END_RES LYS A 135
BEGIN_RES TYR A 136
REMARK  2 active torsions:
REMARK  status: ('A' for Active; 'I' for Inactive)
REMARK    5  A    between atoms: CA   and  CB  
REMARK    6  A    between atoms: CB   and  CG  
ROOT
ATOM      7  CA  TYR A 136      36.583  36.399   8.994  1.00 26.14     0.191 C 
ENDROOT
BRANCH   7   8
ATOM      8  CB  TYR A 136      37.367  36.835  10.240  1.00 28.16     0.060 C 
BRANCH   8   9
ATOM      9  CG  TYR A 136      37.277  38.320  10.492  1.00 31.88    -0.020 A 
ATOM     10  CD2 TYR A 136      38.103  38.946  11.428  1.00 32.67    -0.002 A 
ATOM     11  CE2 TYR A 136      38.010  40.326  11.656  1.00 33.89     0.027 A 
ATOM     12  CZ  TYR A 136      37.082  41.086  10.940  1.00 34.34     0.131 A 
ATOM     13  OH  TYR A 136      36.978  42.455  11.144  1.00 35.14    -0.190 OA
ATOM     14  CE1 TYR A 136      36.253  40.481  10.007  1.00 35.01     0.027 A 
ATOM     15  CD1 TYR A 136      36.350  39.105   9.794  1.00 33.57    -0.002 A 
ENDBRANCH   8   9
ENDBRANCH   7   8
END_RES TYR A 136
BEGIN_RES ASN A 133
REMARK  2 active torsions:
REMARK  status: ('A' for Active; 'I' for Inactive)
REMARK    7  A    between atoms: CA   and  CB  
REMARK    8  A    between atoms: CB   and  CG  
ROOT
ATOM     16  CA  ASN A 133      31.225  30.257  11.749  1.00 18.15     0.196 C 
ENDROOT
BRANCH  16  17
ATOM     17  CB  ASN A 133      30.092  31.240  11.460  1.00 18.27     0.126 C 
BRANCH  17  18
ATOM     18  CG  ASN A 133      28.751  30.582  11.351  1.00 18.94     0.276 C 
ATOM     19  OD1 ASN A 133      28.571  29.622  10.600  1.00 18.09    -0.269 OA
ATOM     20  ND2 ASN A 133      27.785  31.100  12.108  1.00 18.93    -0.107 N 
ENDBRANCH  17  18
ENDBRANCH  16  17
END_RES ASN A 133
