REMARK VINA RESULT:    -4.799      0.923      1.247
REMARK INTER + INTRA:          -9.437
REMARK INTER:                  -6.158
REMARK INTRA:                  -3.279
REMARK UNBOUND:                -3.516
REMARK SMILES Cc1cn(C(C)CC(=O)c2ccccc2)nn1
REMARK SMILES IDX 7 1 5 2 6 3 4 4 1 5 2 6 3 7 17 8 16 9 8 10 9 11 10 12 11 13
REMARK SMILES IDX 15 14 12 15 14 16 13 17
REMARK H PARENT
REMARK Flexibility Score: inf
ROOT
ATOM      1  C   UNL     1      33.036  35.035  14.102  1.00  0.00     0.108 C 
ENDROOT
BRANCH   1   2
ATOM      2  C   UNL     1      33.921  36.112  13.592  1.00  0.00     0.114 C 
ATOM      3  C   UNL     1      33.513  36.749  12.325  1.00  0.00     0.034 C 
BRANCH   2   4
ATOM      4  N   UNL     1      35.271  35.587  13.498  1.00  0.00    -0.249 N 
ATOM      5  C   UNL     1      37.570  32.964  12.487  1.00  0.00     0.070 C 
ATOM      6  C   UNL     1      36.902  34.171  12.999  1.00  0.00     0.080 A 
ATOM      7  C   UNL     1      35.540  34.390  12.942  1.00  0.00     0.134 A 
ATOM      8  N   UNL     1      37.418  35.261  13.597  1.00  0.00    -0.136 NA
ATOM      9  N   UNL     1      36.415  36.088  13.882  1.00  0.00    -0.067 NA
ENDBRANCH   2   4
ENDBRANCH   1   2
BRANCH   1  10
ATOM     10  C   UNL     1      32.838  35.030  15.559  1.00  0.00     0.164 C 
ATOM     11  O   UNL     1      33.322  35.866  16.345  1.00  0.00    -0.294 OA
BRANCH  10  12
ATOM     12  C   UNL     1      32.013  33.968  16.124  1.00  0.00     0.018 A 
ATOM     13  C   UNL     1      31.568  33.999  17.442  1.00  0.00     0.012 A 
ATOM     14  C   UNL     1      31.615  32.858  15.390  1.00  0.00     0.012 A 
ATOM     15  C   UNL     1      30.788  32.999  17.985  1.00  0.00     0.001 A 
ATOM     16  C   UNL     1      30.848  31.851  15.886  1.00  0.00     0.001 A 
ATOM     17  C   UNL     1      30.427  31.917  17.193  1.00  0.00     0.000 A 
ENDBRANCH  10  12
ENDBRANCH   1  10
TORSDOF 4
BEGIN_RES LYS A 135
REMARK  4 active torsions:
REMARK  status: ('A' for Active; 'I' for Inactive)
REMARK    1  A    between atoms: CA   and  CB  
REMARK    2  A    between atoms: CB   and  CG  
REMARK    3  A    between atoms: CG   and  CD  
REMARK    4  A    between atoms: CD   and  CE  
ROOT
ATOM      1  CA  LYS A 135      33.193  34.663   9.290  1.00 25.02     0.186 C 
ENDROOT
BRANCH   1   2
ATOM      2  CB  LYS A 135      32.060  35.360  10.034  1.00 26.63     0.034 C 
BRANCH   2   3
ATOM      3  CG  LYS A 135      30.805  35.514   9.213  1.00 29.45     0.005 C 
BRANCH   3   4
ATOM      4  CD  LYS A 135      29.843  34.368   9.485  1.00 32.00     0.041 C 
BRANCH   4   5
ATOM      5  CE  LYS A 135      28.681  34.407   8.510  1.00 34.25     0.338 C 
ATOM      6  NZ  LYS A 135      28.965  35.326   7.373  1.00 35.99     0.618 N 
ENDBRANCH   4   5
ENDBRANCH   3   4
ENDBRANCH   2   3
ENDBRANCH   1   2
END_RES LYS A 135
BEGIN_RES TYR A 136
REMARK  2 active torsions:
REMARK  status: ('A' for Active; 'I' for Inactive)
REMARK    5  A    between atoms: CA   and  CB  
REMARK    6  A    between atoms: CB   and  CG  
ROOT
ATOM      7  CA  TYR A 136      36.583  36.399   8.994  1.00 26.14     0.191 C 
ENDROOT
BRANCH   7   8
ATOM      8  CB  TYR A 136      37.367  36.835  10.240  1.00 28.16     0.060 C 
BRANCH   8   9
ATOM      9  CG  TYR A 136      36.995  38.222  10.704  1.00 31.88    -0.020 A 
ATOM     10  CD2 TYR A 136      37.588  38.790  11.833  1.00 32.67    -0.002 A 
ATOM     11  CE2 TYR A 136      37.234  40.078  12.257  1.00 33.89     0.027 A 
ATOM     12  CZ  TYR A 136      36.277  40.805  11.544  1.00 34.34     0.131 A 
ATOM     13  OH  TYR A 136      35.916  42.085  11.941  1.00 35.14    -0.190 OA
ATOM     14  CE1 TYR A 136      35.677  40.255  10.420  1.00 35.01     0.027 A 
ATOM     15  CD1 TYR A 136      36.033  38.969  10.012  1.00 33.57    -0.002 A 
ENDBRANCH   8   9
ENDBRANCH   7   8
END_RES TYR A 136
BEGIN_RES ASN A 133
REMARK  2 active torsions:
REMARK  status: ('A' for Active; 'I' for Inactive)
REMARK    7  A    between atoms: CA   and  CB  
REMARK    8  A    between atoms: CB   and  CG  
ROOT
ATOM     16  CA  ASN A 133      31.225  30.257  11.749  1.00 18.15     0.196 C 
ENDROOT
BRANCH  16  17
ATOM     17  CB  ASN A 133      30.092  31.240  11.460  1.00 18.27     0.126 C 
BRANCH  17  18
ATOM     18  CG  ASN A 133      28.751  30.582  11.351  1.00 18.94     0.276 C 
ATOM     19  OD1 ASN A 133      28.585  29.584  10.648  1.00 18.09    -0.269 OA
ATOM     20  ND2 ASN A 133      27.768  31.143  12.054  1.00 18.93    -0.107 N 
ENDBRANCH  17  18
ENDBRANCH  16  17
END_RES ASN A 133
