REMARK VINA RESULT:    -5.497      3.539      8.684
REMARK INTER + INTRA:          -8.870
REMARK INTER:                  -7.674
REMARK INTRA:                  -1.196
REMARK UNBOUND:                -3.051
REMARK SMILES Cc1cn(-c2c3ccccc3nc3ccccc23)nn1
REMARK SMILES IDX 5 1 6 2 7 3 8 4 9 5 10 6 11 7 12 8 13 9 14 10 15 11 16 12
REMARK SMILES IDX 17 13 18 14 4 15 1 16 2 17 3 18 20 19 19 20
REMARK H PARENT
REMARK Flexibility Score: inf
ROOT
ATOM      1  C   UNL     1      27.286  36.382   7.717  1.00  0.00     0.085 A 
ATOM      2  C   UNL     1      28.207  35.484   8.230  1.00  0.00     0.027 A 
ATOM      3  C   UNL     1      29.507  35.473   7.771  1.00  0.00     0.012 A 
ATOM      4  C   UNL     1      30.404  34.569   8.299  1.00  0.00     0.001 A 
ATOM      5  C   UNL     1      29.955  33.705   9.274  1.00  0.00     0.002 A 
ATOM      6  C   UNL     1      28.664  33.721   9.727  1.00  0.00     0.029 A 
ATOM      7  C   UNL     1      27.741  34.628   9.206  1.00  0.00     0.073 A 
ATOM      8  N   UNL     1      26.480  34.625   9.663  1.00  0.00    -0.248 NA
ATOM      9  C   UNL     1      25.566  35.508   9.161  1.00  0.00     0.073 A 
ATOM     10  C   UNL     1      24.265  35.513   9.627  1.00  0.00     0.029 A 
ATOM     11  C   UNL     1      23.392  36.428   9.081  1.00  0.00     0.002 A 
ATOM     12  C   UNL     1      23.790  37.316   8.100  1.00  0.00     0.001 A 
ATOM     13  C   UNL     1      25.073  37.296   7.656  1.00  0.00     0.012 A 
ATOM     14  C   UNL     1      25.964  36.392   8.186  1.00  0.00     0.027 A 
ENDROOT
BRANCH   1  15
ATOM     15  N   UNL     1      27.664  37.306   6.709  1.00  0.00    -0.219 N 
ATOM     16  C   UNL     1      28.922  40.488   5.385  1.00  0.00     0.070 C 
ATOM     17  C   UNL     1      28.382  39.108   5.658  1.00  0.00     0.080 A 
ATOM     18  C   UNL     1      28.139  38.544   6.890  1.00  0.00     0.140 A 
ATOM     19  N   UNL     1      28.044  38.192   4.742  1.00  0.00    -0.135 NA
ATOM     20  N   UNL     1      27.624  37.139   5.409  1.00  0.00    -0.062 NA
ENDBRANCH   1  15
TORSDOF 1
BEGIN_RES LYS A 135
REMARK  4 active torsions:
REMARK  status: ('A' for Active; 'I' for Inactive)
REMARK    1  A    between atoms: CA   and  CB  
REMARK    2  A    between atoms: CB   and  CG  
REMARK    3  A    between atoms: CG   and  CD  
REMARK    4  A    between atoms: CD   and  CE  
ROOT
ATOM      1  CA  LYS A 135      33.193  34.663   9.290  1.00 25.02     0.186 C 
ENDROOT
BRANCH   1   2
ATOM      2  CB  LYS A 135      32.060  35.360  10.034  1.00 26.63     0.034 C 
BRANCH   2   3
ATOM      3  CG  LYS A 135      32.264  35.417  11.526  1.00 29.45     0.005 C 
BRANCH   3   4
ATOM      4  CD  LYS A 135      31.098  36.123  12.201  1.00 32.00     0.041 C 
BRANCH   4   5
ATOM      5  CE  LYS A 135      30.339  36.972  11.200  1.00 34.25     0.338 C 
ATOM      6  NZ  LYS A 135      28.886  37.014  11.525  1.00 35.99     0.618 N 
ENDBRANCH   4   5
ENDBRANCH   3   4
ENDBRANCH   2   3
ENDBRANCH   1   2
END_RES LYS A 135
BEGIN_RES TYR A 136
REMARK  2 active torsions:
REMARK  status: ('A' for Active; 'I' for Inactive)
REMARK    5  A    between atoms: CA   and  CB  
REMARK    6  A    between atoms: CB   and  CG  
ROOT
ATOM      7  CA  TYR A 136      36.583  36.399   8.994  1.00 26.14     0.191 C 
ENDROOT
BRANCH   7   8
ATOM      8  CB  TYR A 136      37.367  36.835  10.240  1.00 28.16     0.060 C 
BRANCH   8   9
ATOM      9  CG  TYR A 136      37.194  38.302  10.550  1.00 31.88    -0.020 A 
ATOM     10  CD2 TYR A 136      37.658  38.846  11.750  1.00 32.67    -0.002 A 
ATOM     11  CE2 TYR A 136      37.491  40.210  12.029  1.00 33.89     0.027 A 
ATOM     12  CZ  TYR A 136      36.854  41.035  11.100  1.00 34.34     0.131 A 
ATOM     13  OH  TYR A 136      36.684  42.389  11.352  1.00 35.14    -0.190 OA
ATOM     14  CE1 TYR A 136      36.386  40.511   9.904  1.00 35.01     0.027 A 
ATOM     15  CD1 TYR A 136      36.553  39.150   9.639  1.00 33.57    -0.002 A 
ENDBRANCH   8   9
ENDBRANCH   7   8
END_RES TYR A 136
BEGIN_RES ASN A 133
REMARK  2 active torsions:
REMARK  status: ('A' for Active; 'I' for Inactive)
REMARK    7  A    between atoms: CA   and  CB  
REMARK    8  A    between atoms: CB   and  CG  
ROOT
ATOM     16  CA  ASN A 133      31.225  30.257  11.749  1.00 18.15     0.196 C 
ENDROOT
BRANCH  16  17
ATOM     17  CB  ASN A 133      30.092  31.240  11.460  1.00 18.27     0.126 C 
BRANCH  17  18
ATOM     18  CG  ASN A 133      28.749  30.584  11.368  1.00 18.94     0.276 C 
ATOM     19  OD1 ASN A 133      28.561  29.614  10.632  1.00 18.09    -0.269 OA
ATOM     20  ND2 ASN A 133      27.788  31.116  12.124  1.00 18.93    -0.107 N 
ENDBRANCH  17  18
ENDBRANCH  16  17
END_RES ASN A 133
