REMARK VINA RESULT:    -3.684      4.707      9.613
REMARK INTER + INTRA:          -8.199
REMARK INTER:                  -5.995
REMARK INTRA:                  -2.204
REMARK UNBOUND:                -3.654
REMARK SMILES CC(=O)Oc1ccccc1Cn1cc(C)nn1
REMARK SMILES IDX 10 1 5 2 6 3 7 4 8 5 9 6 11 7 12 8 15 9 14 10 13 11 16 12
REMARK SMILES IDX 17 13 4 14 2 15 3 16 1 17
REMARK H PARENT
REMARK Flexibility Score: inf
ROOT
ATOM      1  C   UNL     1      26.602  35.772   8.315  1.00  0.00     0.016 A 
ATOM      2  C   UNL     1      26.355  37.049   7.879  1.00  0.00     0.135 A 
ATOM      3  C   UNL     1      26.925  37.606   6.743  1.00  0.00     0.047 A 
ATOM      4  C   UNL     1      27.796  36.846   5.995  1.00  0.00     0.004 A 
ATOM      5  C   UNL     1      28.065  35.568   6.401  1.00  0.00     0.001 A 
ATOM      6  C   UNL     1      27.482  35.026   7.547  1.00  0.00     0.009 A 
ENDROOT
BRANCH   1   7
ATOM      7  C   UNL     1      25.954  35.209   9.525  1.00  0.00     0.185 C 
BRANCH   7   8
ATOM      8  N   UNL     1      26.875  35.279  10.644  1.00  0.00    -0.248 N 
ATOM      9  C   UNL     1      29.493  34.145  12.933  1.00  0.00     0.070 C 
ATOM     10  C   UNL     1      28.442  34.862  12.177  1.00  0.00     0.080 A 
ATOM     11  C   UNL     1      27.749  34.358  11.073  1.00  0.00     0.134 A 
ATOM     12  N   UNL     1      27.932  36.090  12.355  1.00  0.00    -0.136 NA
ATOM     13  N   UNL     1      27.002  36.340  11.445  1.00  0.00    -0.067 NA
ENDBRANCH   7   8
ENDBRANCH   1   7
BRANCH   2  14
ATOM     14  O   UNL     1      25.480  37.879   8.598  1.00  0.00    -0.426 OA
BRANCH  14  15
ATOM     15  C   UNL     1      24.336  38.277   7.909  1.00  0.00     0.308 C 
ATOM     16  O   UNL     1      24.212  39.460   7.494  1.00  0.00    -0.252 OA
ATOM     17  C   UNL     1      23.253  37.314   7.658  1.00  0.00     0.139 C 
ENDBRANCH  14  15
ENDBRANCH   2  14
TORSDOF 4
BEGIN_RES LYS A 135
REMARK  4 active torsions:
REMARK  status: ('A' for Active; 'I' for Inactive)
REMARK    1  A    between atoms: CA   and  CB  
REMARK    2  A    between atoms: CB   and  CG  
REMARK    3  A    between atoms: CG   and  CD  
REMARK    4  A    between atoms: CD   and  CE  
ROOT
ATOM      1  CA  LYS A 135      33.193  34.663   9.290  1.00 25.02     0.186 C 
ENDROOT
BRANCH   1   2
ATOM      2  CB  LYS A 135      32.060  35.360  10.034  1.00 26.63     0.034 C 
BRANCH   2   3
ATOM      3  CG  LYS A 135      30.800  35.500   9.219  1.00 29.45     0.005 C 
BRANCH   3   4
ATOM      4  CD  LYS A 135      30.107  36.819   9.524  1.00 32.00     0.041 C 
BRANCH   4   5
ATOM      5  CE  LYS A 135      30.394  37.835   8.435  1.00 34.25     0.338 C 
ATOM      6  NZ  LYS A 135      31.467  38.780   8.852  1.00 35.99     0.618 N 
ENDBRANCH   4   5
ENDBRANCH   3   4
ENDBRANCH   2   3
ENDBRANCH   1   2
END_RES LYS A 135
BEGIN_RES TYR A 136
REMARK  2 active torsions:
REMARK  status: ('A' for Active; 'I' for Inactive)
REMARK    5  A    between atoms: CA   and  CB  
REMARK    6  A    between atoms: CB   and  CG  
ROOT
ATOM      7  CA  TYR A 136      36.583  36.399   8.994  1.00 26.14     0.191 C 
ENDROOT
BRANCH   7   8
ATOM      8  CB  TYR A 136      37.367  36.835  10.240  1.00 28.16     0.060 C 
BRANCH   8   9
ATOM      9  CG  TYR A 136      36.497  36.931  11.469  1.00 31.88    -0.020 A 
ATOM     10  CD2 TYR A 136      36.498  35.924  12.436  1.00 32.67    -0.002 A 
ATOM     11  CE2 TYR A 136      35.684  36.022  13.573  1.00 33.89     0.027 A 
ATOM     12  CZ  TYR A 136      34.862  37.138  13.744  1.00 34.34     0.131 A 
ATOM     13  OH  TYR A 136      34.053  37.260  14.865  1.00 35.14    -0.190 OA
ATOM     14  CE1 TYR A 136      34.847  38.148  12.792  1.00 35.01     0.027 A 
ATOM     15  CD1 TYR A 136      35.657  38.036  11.661  1.00 33.57    -0.002 A 
ENDBRANCH   8   9
ENDBRANCH   7   8
END_RES TYR A 136
BEGIN_RES ASN A 133
REMARK  2 active torsions:
REMARK  status: ('A' for Active; 'I' for Inactive)
REMARK    7  A    between atoms: CA   and  CB  
REMARK    8  A    between atoms: CB   and  CG  
ROOT
ATOM     16  CA  ASN A 133      31.225  30.257  11.749  1.00 18.15     0.196 C 
ENDROOT
BRANCH  16  17
ATOM     17  CB  ASN A 133      30.092  31.240  11.460  1.00 18.27     0.126 C 
BRANCH  17  18
ATOM     18  CG  ASN A 133      28.748  30.585  11.374  1.00 18.94     0.276 C 
ATOM     19  OD1 ASN A 133      28.526  29.688  10.559  1.00 18.09    -0.269 OA
ATOM     20  ND2 ASN A 133      27.826  31.034  12.224  1.00 18.93    -0.107 N 
ENDBRANCH  17  18
ENDBRANCH  16  17
END_RES ASN A 133
