REMARK VINA RESULT:    -3.467      0.000      0.000
REMARK INTER + INTRA:          -7.399
REMARK INTER:                  -4.023
REMARK INTRA:                  -3.375
REMARK UNBOUND:                -3.424
REMARK SMILES Cc1cn(CC(=O)O)nn1
REMARK SMILES IDX 5 1 4 2 1 3 2 4 3 5 10 6 9 7 6 8 7 9 8 10
REMARK H PARENT 8 11
REMARK Flexibility Score: inf
ROOT
ATOM      1  C   UNL     1      38.482  37.552   2.479  1.00  0.00     0.268 C 
ENDROOT
BRANCH   1   2
ATOM      2  N   UNL     1      37.500  37.932   3.450  1.00  0.00    -0.241 N 
ATOM      3  C   UNL     1      36.064  39.015   6.652  1.00  0.00     0.070 C 
ATOM      4  C   UNL     1      36.443  38.581   5.301  1.00  0.00     0.080 A 
ATOM      5  C   UNL     1      37.664  38.299   4.745  1.00  0.00     0.134 A 
ATOM      6  N   UNL     1      35.547  38.372   4.300  1.00  0.00    -0.136 NA
ATOM      7  N   UNL     1      36.201  37.992   3.226  1.00  0.00    -0.067 NA
ENDBRANCH   1   2
BRANCH   1   8
ATOM      8  C   UNL     1      37.900  37.631   1.105  1.00  0.00     0.325 C 
ATOM      9  O   UNL     1      38.141  38.610   0.342  1.00  0.00    -0.250 OA
BRANCH   8  10
ATOM     10  O   UNL     1      37.076  36.643   0.605  1.00  0.00    -0.480 OA
ATOM     11  H   UNL     1      36.657  35.923   1.152  1.00  0.00     0.296 HD
ENDBRANCH   8  10
ENDBRANCH   1   8
TORSDOF 3
BEGIN_RES LYS A 135
REMARK  4 active torsions:
REMARK  status: ('A' for Active; 'I' for Inactive)
REMARK    1  A    between atoms: CA   and  CB  
REMARK    2  A    between atoms: CB   and  CG  
REMARK    3  A    between atoms: CG   and  CD  
REMARK    4  A    between atoms: CD   and  CE  
ROOT
ATOM      1  CA  LYS A 135      33.193  34.663   9.290  1.00 25.02     0.186 C 
ENDROOT
BRANCH   1   2
ATOM      2  CB  LYS A 135      32.060  35.360  10.034  1.00 26.63     0.034 C 
BRANCH   2   3
ATOM      3  CG  LYS A 135      30.808  35.520   9.211  1.00 29.45     0.005 C 
BRANCH   3   4
ATOM      4  CD  LYS A 135      30.148  34.171   8.971  1.00 32.00     0.041 C 
BRANCH   4   5
ATOM      5  CE  LYS A 135      28.684  34.350   8.615  1.00 34.25     0.338 C 
ATOM      6  NZ  LYS A 135      27.804  33.690   9.619  1.00 35.99     0.618 N 
ENDBRANCH   4   5
ENDBRANCH   3   4
ENDBRANCH   2   3
ENDBRANCH   1   2
END_RES LYS A 135
BEGIN_RES TYR A 136
REMARK  2 active torsions:
REMARK  status: ('A' for Active; 'I' for Inactive)
REMARK    5  A    between atoms: CA   and  CB  
REMARK    6  A    between atoms: CB   and  CG  
ROOT
ATOM      7  CA  TYR A 136      36.583  36.399   8.994  1.00 26.14     0.191 C 
ENDROOT
BRANCH   7   8
ATOM      8  CB  TYR A 136      37.367  36.835  10.240  1.00 28.16     0.060 C 
BRANCH   8   9
ATOM      9  CG  TYR A 136      37.409  38.334  10.404  1.00 31.88    -0.020 A 
ATOM     10  CD2 TYR A 136      38.612  39.038  10.310  1.00 32.67    -0.002 A 
ATOM     11  CE2 TYR A 136      38.641  40.431  10.465  1.00 33.89     0.027 A 
ATOM     12  CZ  TYR A 136      37.455  41.126  10.717  1.00 34.34     0.131 A 
ATOM     13  OH  TYR A 136      37.459  42.505  10.867  1.00 35.14    -0.190 OA
ATOM     14  CE1 TYR A 136      36.252  40.442  10.814  1.00 35.01     0.027 A 
ATOM     15  CD1 TYR A 136      36.237  39.055  10.664  1.00 33.57    -0.002 A 
ENDBRANCH   8   9
ENDBRANCH   7   8
END_RES TYR A 136
BEGIN_RES ASN A 133
REMARK  2 active torsions:
REMARK  status: ('A' for Active; 'I' for Inactive)
REMARK    7  A    between atoms: CA   and  CB  
REMARK    8  A    between atoms: CB   and  CG  
ROOT
ATOM     16  CA  ASN A 133      31.225  30.257  11.749  1.00 18.15     0.196 C 
ENDROOT
BRANCH  16  17
ATOM     17  CB  ASN A 133      30.092  31.240  11.460  1.00 18.27     0.126 C 
BRANCH  17  18
ATOM     18  CG  ASN A 133      28.750  30.583  11.360  1.00 18.94     0.276 C 
ATOM     19  OD1 ASN A 133      28.568  29.612  10.624  1.00 18.09    -0.269 OA
ATOM     20  ND2 ASN A 133      27.784  31.115  12.109  1.00 18.93    -0.107 N 
ENDBRANCH  17  18
ENDBRANCH  16  17
END_RES ASN A 133
