REMARK VINA RESULT:    -5.654      2.480      3.311
REMARK INTER + INTRA:          -7.298
REMARK INTER:                  -4.372
REMARK INTRA:                  -2.926
REMARK UNBOUND:                -1.313
REMARK SMILES Cc1cn(-c2ccccc2I)nn1
REMARK SMILES IDX 5 1 6 2 7 3 8 4 9 5 10 6 11 7 4 8 1 9 2 10 3 11 13 12 12 13
REMARK H PARENT
REMARK Flexibility Score: inf
ROOT
ATOM      1  C   UNL     1      32.603  34.794  14.418  1.00  0.00     0.080 A 
ATOM      2  C   UNL     1      33.975  34.927  14.362  1.00  0.00     0.029 A 
ATOM      3  C   UNL     1      34.603  35.708  13.404  1.00  0.00     0.002 A 
ATOM      4  C   UNL     1      33.842  36.388  12.459  1.00  0.00     0.001 A 
ATOM      5  C   UNL     1      32.466  36.267  12.498  1.00  0.00     0.017 A 
ATOM      6  C   UNL     1      31.867  35.484  13.461  1.00  0.00     0.039 A 
ATOM      7  I   UNL     1      29.764  35.322  13.492  1.00  0.00    -0.042 I 
ENDROOT
BRANCH   1   8
ATOM      8  N   UNL     1      31.973  33.983  15.413  1.00  0.00    -0.219 N 
ATOM      9  C   UNL     1      30.312  31.126  16.917  1.00  0.00     0.070 C 
ATOM     10  C   UNL     1      30.977  32.411  16.535  1.00  0.00     0.080 A 
ATOM     11  C   UNL     1      31.471  32.757  15.302  1.00  0.00     0.140 A 
ATOM     12  N   UNL     1      31.205  33.457  17.347  1.00  0.00    -0.135 NA
ATOM     13  N   UNL     1      31.802  34.390  16.661  1.00  0.00    -0.062 NA
ENDBRANCH   1   8
TORSDOF 1
BEGIN_RES LYS A 135
REMARK  4 active torsions:
REMARK  status: ('A' for Active; 'I' for Inactive)
REMARK    1  A    between atoms: CA   and  CB  
REMARK    2  A    between atoms: CB   and  CG  
REMARK    3  A    between atoms: CG   and  CD  
REMARK    4  A    between atoms: CD   and  CE  
ROOT
ATOM      1  CA  LYS A 135      33.193  34.663   9.290  1.00 25.02     0.186 C 
ENDROOT
BRANCH   1   2
ATOM      2  CB  LYS A 135      32.060  35.360  10.034  1.00 26.63     0.034 C 
BRANCH   2   3
ATOM      3  CG  LYS A 135      30.808  35.522   9.210  1.00 29.45     0.005 C 
BRANCH   3   4
ATOM      4  CD  LYS A 135      30.151  34.173   8.962  1.00 32.00     0.041 C 
BRANCH   4   5
ATOM      5  CE  LYS A 135      28.683  34.351   8.624  1.00 34.25     0.338 C 
ATOM      6  NZ  LYS A 135      27.815  33.704   9.647  1.00 35.99     0.618 N 
ENDBRANCH   4   5
ENDBRANCH   3   4
ENDBRANCH   2   3
ENDBRANCH   1   2
END_RES LYS A 135
BEGIN_RES TYR A 136
REMARK  2 active torsions:
REMARK  status: ('A' for Active; 'I' for Inactive)
REMARK    5  A    between atoms: CA   and  CB  
REMARK    6  A    between atoms: CB   and  CG  
ROOT
ATOM      7  CA  TYR A 136      36.583  36.399   8.994  1.00 26.14     0.191 C 
ENDROOT
BRANCH   7   8
ATOM      8  CB  TYR A 136      37.367  36.835  10.240  1.00 28.16     0.060 C 
BRANCH   8   9
ATOM      9  CG  TYR A 136      36.736  38.014  10.939  1.00 31.88    -0.020 A 
ATOM     10  CD2 TYR A 136      37.040  38.313  12.269  1.00 32.67    -0.002 A 
ATOM     11  CE2 TYR A 136      36.448  39.410  12.910  1.00 33.89     0.027 A 
ATOM     12  CZ  TYR A 136      35.542  40.214  12.214  1.00 34.34     0.131 A 
ATOM     13  OH  TYR A 136      34.948  41.309  12.826  1.00 35.14    -0.190 OA
ATOM     14  CE1 TYR A 136      35.228  39.931  10.892  1.00 35.01     0.027 A 
ATOM     15  CD1 TYR A 136      35.819  38.832  10.267  1.00 33.57    -0.002 A 
ENDBRANCH   8   9
ENDBRANCH   7   8
END_RES TYR A 136
BEGIN_RES ASN A 133
REMARK  2 active torsions:
REMARK  status: ('A' for Active; 'I' for Inactive)
REMARK    7  A    between atoms: CA   and  CB  
REMARK    8  A    between atoms: CB   and  CG  
ROOT
ATOM     16  CA  ASN A 133      31.225  30.257  11.749  1.00 18.15     0.196 C 
ENDROOT
BRANCH  16  17
ATOM     17  CB  ASN A 133      30.092  31.240  11.460  1.00 18.27     0.126 C 
BRANCH  17  18
ATOM     18  CG  ASN A 133      28.749  30.585  11.370  1.00 18.94     0.276 C 
ATOM     19  OD1 ASN A 133      28.562  29.608  10.641  1.00 18.09    -0.269 OA
ATOM     20  ND2 ASN A 133      27.786  31.123  12.118  1.00 18.93    -0.107 N 
ENDBRANCH  17  18
ENDBRANCH  16  17
END_RES ASN A 133
