REMARK VINA RESULT:    -4.566      3.980      4.535
REMARK INTER + INTRA:          -7.013
REMARK INTER:                  -3.845
REMARK INTRA:                  -3.168
REMARK UNBOUND:                -2.181
REMARK SMILES Cc1cn(-c2ccccc2)nn1
REMARK SMILES IDX 5 1 6 2 7 3 8 4 9 5 10 6 4 7 1 8 2 9 3 10 12 11 11 12
REMARK H PARENT
REMARK Flexibility Score: inf
ROOT
ATOM      1  C   UNL     1      38.329  34.187  16.610  1.00  0.00     0.066 A 
ATOM      2  C   UNL     1      38.756  33.127  17.386  1.00  0.00     0.028 A 
ATOM      3  C   UNL     1      38.615  33.119  18.753  1.00  0.00     0.002 A 
ATOM      4  C   UNL     1      38.034  34.182  19.415  1.00  0.00     0.000 A 
ATOM      5  C   UNL     1      37.606  35.241  18.641  1.00  0.00     0.002 A 
ATOM      6  C   UNL     1      37.748  35.249  17.267  1.00  0.00     0.028 A 
ENDROOT
BRANCH   1   7
ATOM      7  N   UNL     1      38.470  34.206  15.189  1.00  0.00    -0.220 N 
ATOM      8  C   UNL     1      37.355  33.586  11.747  1.00  0.00     0.070 C 
ATOM      9  C   UNL     1      38.063  33.950  13.005  1.00  0.00     0.080 A 
ATOM     10  C   UNL     1      37.569  33.765  14.293  1.00  0.00     0.140 A 
ATOM     11  N   UNL     1      39.269  34.506  13.183  1.00  0.00    -0.135 NA
ATOM     12  N   UNL     1      39.495  34.651  14.478  1.00  0.00    -0.062 NA
ENDBRANCH   1   7
TORSDOF 1
BEGIN_RES LYS A 135
REMARK  4 active torsions:
REMARK  status: ('A' for Active; 'I' for Inactive)
REMARK    1  A    between atoms: CA   and  CB  
REMARK    2  A    between atoms: CB   and  CG  
REMARK    3  A    between atoms: CG   and  CD  
REMARK    4  A    between atoms: CD   and  CE  
ROOT
ATOM      1  CA  LYS A 135      33.193  34.663   9.290  1.00 25.02     0.186 C 
ENDROOT
BRANCH   1   2
ATOM      2  CB  LYS A 135      32.060  35.360  10.034  1.00 26.63     0.034 C 
BRANCH   2   3
ATOM      3  CG  LYS A 135      30.732  34.659   9.903  1.00 29.45     0.005 C 
BRANCH   3   4
ATOM      4  CD  LYS A 135      30.329  34.543   8.441  1.00 32.00     0.041 C 
BRANCH   4   5
ATOM      5  CE  LYS A 135      28.819  34.525   8.304  1.00 34.25     0.338 C 
ATOM      6  NZ  LYS A 135      28.185  33.822   9.454  1.00 35.99     0.618 N 
ENDBRANCH   4   5
ENDBRANCH   3   4
ENDBRANCH   2   3
ENDBRANCH   1   2
END_RES LYS A 135
BEGIN_RES TYR A 136
REMARK  2 active torsions:
REMARK  status: ('A' for Active; 'I' for Inactive)
REMARK    5  A    between atoms: CA   and  CB  
REMARK    6  A    between atoms: CB   and  CG  
ROOT
ATOM      7  CA  TYR A 136      36.583  36.399   8.994  1.00 26.14     0.191 C 
ENDROOT
BRANCH   7   8
ATOM      8  CB  TYR A 136      37.367  36.835  10.240  1.00 28.16     0.060 C 
BRANCH   8   9
ATOM      9  CG  TYR A 136      37.182  38.298  10.559  1.00 31.88    -0.020 A 
ATOM     10  CD2 TYR A 136      37.697  38.853  11.733  1.00 32.67    -0.002 A 
ATOM     11  CE2 TYR A 136      37.518  40.213  12.021  1.00 33.89     0.027 A 
ATOM     12  CZ  TYR A 136      36.817  41.025  11.127  1.00 34.34     0.131 A 
ATOM     13  OH  TYR A 136      36.634  42.376  11.388  1.00 35.14    -0.190 OA
ATOM     14  CE1 TYR A 136      36.298  40.490   9.957  1.00 35.01     0.027 A 
ATOM     15  CD1 TYR A 136      36.477  39.133   9.684  1.00 33.57    -0.002 A 
ENDBRANCH   8   9
ENDBRANCH   7   8
END_RES TYR A 136
BEGIN_RES ASN A 133
REMARK  2 active torsions:
REMARK  status: ('A' for Active; 'I' for Inactive)
REMARK    7  A    between atoms: CA   and  CB  
REMARK    8  A    between atoms: CB   and  CG  
ROOT
ATOM     16  CA  ASN A 133      31.225  30.257  11.749  1.00 18.15     0.196 C 
ENDROOT
BRANCH  16  17
ATOM     17  CB  ASN A 133      30.092  31.240  11.460  1.00 18.27     0.126 C 
BRANCH  17  18
ATOM     18  CG  ASN A 133      28.752  30.582  11.348  1.00 18.94     0.276 C 
ATOM     19  OD1 ASN A 133      28.582  29.598  10.626  1.00 18.09    -0.269 OA
ATOM     20  ND2 ASN A 133      27.773  31.127  12.070  1.00 18.93    -0.107 N 
ENDBRANCH  17  18
ENDBRANCH  16  17
END_RES ASN A 133
