REMARK VINA RESULT:    -4.713      2.626      3.826
REMARK INTER + INTRA:          -8.040
REMARK INTER:                  -5.188
REMARK INTRA:                  -2.852
REMARK UNBOUND:                -3.051
REMARK SMILES Cc1cn(-c2c3ccccc3nc3ccccc23)nn1
REMARK SMILES IDX 5 1 6 2 7 3 8 4 9 5 10 6 11 7 12 8 13 9 14 10 15 11 16 12
REMARK SMILES IDX 17 13 18 14 4 15 1 16 2 17 3 18 20 19 19 20
REMARK H PARENT
REMARK Flexibility Score: inf
ROOT
ATOM      1  C   UNL     1      37.844  35.334  15.902  1.00  0.00     0.085 A 
ATOM      2  C   UNL     1      37.984  34.715  17.133  1.00  0.00     0.027 A 
ATOM      3  C   UNL     1      38.529  33.452  17.225  1.00  0.00     0.012 A 
ATOM      4  C   UNL     1      38.658  32.859  18.463  1.00  0.00     0.001 A 
ATOM      5  C   UNL     1      38.230  33.563  19.567  1.00  0.00     0.002 A 
ATOM      6  C   UNL     1      37.691  34.818  19.470  1.00  0.00     0.029 A 
ATOM      7  C   UNL     1      37.553  35.435  18.226  1.00  0.00     0.073 A 
ATOM      8  N   UNL     1      37.020  36.664  18.154  1.00  0.00    -0.248 NA
ATOM      9  C   UNL     1      36.879  37.281  16.943  1.00  0.00     0.073 A 
ATOM     10  C   UNL     1      36.332  38.547  16.859  1.00  0.00     0.029 A 
ATOM     11  C   UNL     1      36.216  39.114  15.609  1.00  0.00     0.002 A 
ATOM     12  C   UNL     1      36.628  38.451  14.469  1.00  0.00     0.001 A 
ATOM     13  C   UNL     1      37.164  37.207  14.572  1.00  0.00     0.012 A 
ATOM     14  C   UNL     1      37.290  36.619  15.810  1.00  0.00     0.027 A 
ENDROOT
BRANCH   1  15
ATOM     15  N   UNL     1      38.258  34.678  14.714  1.00  0.00    -0.219 N 
ATOM     16  C   UNL     1      37.875  32.512  11.777  1.00  0.00     0.070 C 
ATOM     17  C   UNL     1      38.294  33.438  12.889  1.00  0.00     0.080 A 
ATOM     18  C   UNL     1      37.523  33.865  13.946  1.00  0.00     0.140 A 
ATOM     19  N   UNL     1      39.498  34.007  13.038  1.00  0.00    -0.135 NA
ATOM     20  N   UNL     1      39.431  34.734  14.132  1.00  0.00    -0.062 NA
ENDBRANCH   1  15
TORSDOF 1
BEGIN_RES LYS A 135
REMARK  4 active torsions:
REMARK  status: ('A' for Active; 'I' for Inactive)
REMARK    1  A    between atoms: CA   and  CB  
REMARK    2  A    between atoms: CB   and  CG  
REMARK    3  A    between atoms: CG   and  CD  
REMARK    4  A    between atoms: CD   and  CE  
ROOT
ATOM      1  CA  LYS A 135      33.193  34.663   9.290  1.00 25.02     0.186 C 
ENDROOT
BRANCH   1   2
ATOM      2  CB  LYS A 135      32.060  35.360  10.034  1.00 26.63     0.034 C 
BRANCH   2   3
ATOM      3  CG  LYS A 135      30.706  34.750   9.778  1.00 29.45     0.005 C 
BRANCH   3   4
ATOM      4  CD  LYS A 135      30.492  34.526   8.289  1.00 32.00     0.041 C 
BRANCH   4   5
ATOM      5  CE  LYS A 135      29.061  34.850   7.902  1.00 34.25     0.338 C 
ATOM      6  NZ  LYS A 135      28.978  36.165   7.207  1.00 35.99     0.618 N 
ENDBRANCH   4   5
ENDBRANCH   3   4
ENDBRANCH   2   3
ENDBRANCH   1   2
END_RES LYS A 135
BEGIN_RES TYR A 136
REMARK  2 active torsions:
REMARK  status: ('A' for Active; 'I' for Inactive)
REMARK    5  A    between atoms: CA   and  CB  
REMARK    6  A    between atoms: CB   and  CG  
ROOT
ATOM      7  CA  TYR A 136      36.583  36.399   8.994  1.00 26.14     0.191 C 
ENDROOT
BRANCH   7   8
ATOM      8  CB  TYR A 136      37.367  36.835  10.240  1.00 28.16     0.060 C 
BRANCH   8   9
ATOM      9  CG  TYR A 136      37.010  38.230  10.691  1.00 31.88    -0.020 A 
ATOM     10  CD2 TYR A 136      35.679  38.640  10.790  1.00 32.67    -0.002 A 
ATOM     11  CE2 TYR A 136      35.358  39.938  11.209  1.00 33.89     0.027 A 
ATOM     12  CZ  TYR A 136      36.379  40.835  11.531  1.00 34.34     0.131 A 
ATOM     13  OH  TYR A 136      36.085  42.124  11.955  1.00 35.14    -0.190 OA
ATOM     14  CE1 TYR A 136      37.707  40.446  11.437  1.00 35.01     0.027 A 
ATOM     15  CD1 TYR A 136      38.015  39.152  11.013  1.00 33.57    -0.002 A 
ENDBRANCH   8   9
ENDBRANCH   7   8
END_RES TYR A 136
BEGIN_RES ASN A 133
REMARK  2 active torsions:
REMARK  status: ('A' for Active; 'I' for Inactive)
REMARK    7  A    between atoms: CA   and  CB  
REMARK    8  A    between atoms: CB   and  CG  
ROOT
ATOM     16  CA  ASN A 133      31.225  30.257  11.749  1.00 18.15     0.196 C 
ENDROOT
BRANCH  16  17
ATOM     17  CB  ASN A 133      30.092  31.240  11.460  1.00 18.27     0.126 C 
BRANCH  17  18
ATOM     18  CG  ASN A 133      28.752  30.581  11.344  1.00 18.94     0.276 C 
ATOM     19  OD1 ASN A 133      28.582  29.608  10.607  1.00 18.09    -0.269 OA
ATOM     20  ND2 ASN A 133      27.776  31.113  12.078  1.00 18.93    -0.107 N 
ENDBRANCH  17  18
ENDBRANCH  16  17
END_RES ASN A 133
