REMARK VINA RESULT:    -4.007      6.196      7.493
REMARK INTER + INTRA:          -7.612
REMARK INTER:                  -4.594
REMARK INTRA:                  -3.017
REMARK UNBOUND:                -2.667
REMARK SMILES Cc1cn(CC(O)CO)nn1
REMARK SMILES IDX 6 1 5 2 4 3 1 4 2 5 3 6 11 7 10 8 7 9 8 11 9 12
REMARK H PARENT 7 10 9 13
REMARK Flexibility Score: inf
ROOT
ATOM      1  C   UNL     1      37.708  33.706  13.587  1.00  0.00     0.161 C 
ENDROOT
BRANCH   1   2
ATOM      2  C   UNL     1      36.461  34.044  12.804  1.00  0.00     0.180 C 
BRANCH   2   3
ATOM      3  N   UNL     1      35.830  35.253  13.292  1.00  0.00    -0.250 N 
ATOM      4  C   UNL     1      33.390  37.982  13.395  1.00  0.00     0.070 C 
ATOM      5  C   UNL     1      34.482  36.990  13.560  1.00  0.00     0.080 A 
ATOM      6  C   UNL     1      34.747  35.878  12.799  1.00  0.00     0.134 A 
ATOM      7  N   UNL     1      35.433  37.009  14.515  1.00  0.00    -0.136 NA
ATOM      8  N   UNL     1      36.215  35.972  14.332  1.00  0.00    -0.067 NA
ENDBRANCH   2   3
ENDBRANCH   1   2
BRANCH   1   9
ATOM      9  O   UNL     1      37.709  32.340  13.834  1.00  0.00    -0.389 OA
ATOM     10  H   UNL     1      37.659  31.782  13.042  1.00  0.00     0.211 HD
ENDBRANCH   1   9
BRANCH   1  11
ATOM     11  C   UNL     1      38.929  34.038  12.787  1.00  0.00     0.189 C 
BRANCH  11  12
ATOM     12  O   UNL     1      39.518  32.854  12.371  1.00  0.00    -0.394 OA
ATOM     13  H   UNL     1      39.720  32.252  13.133  1.00  0.00     0.210 HD
ENDBRANCH  11  12
ENDBRANCH   1  11
TORSDOF 5
BEGIN_RES LYS A 135
REMARK  4 active torsions:
REMARK  status: ('A' for Active; 'I' for Inactive)
REMARK    1  A    between atoms: CA   and  CB  
REMARK    2  A    between atoms: CB   and  CG  
REMARK    3  A    between atoms: CG   and  CD  
REMARK    4  A    between atoms: CD   and  CE  
ROOT
ATOM      1  CA  LYS A 135      33.193  34.663   9.290  1.00 25.02     0.186 C 
ENDROOT
BRANCH   1   2
ATOM      2  CB  LYS A 135      32.060  35.360  10.034  1.00 26.63     0.034 C 
BRANCH   2   3
ATOM      3  CG  LYS A 135      30.795  35.485   9.225  1.00 29.45     0.005 C 
BRANCH   3   4
ATOM      4  CD  LYS A 135      30.194  34.115   8.953  1.00 32.00     0.041 C 
BRANCH   4   5
ATOM      5  CE  LYS A 135      28.681  34.201   8.885  1.00 34.25     0.338 C 
ATOM      6  NZ  LYS A 135      28.242  35.031   7.730  1.00 35.99     0.618 N 
ENDBRANCH   4   5
ENDBRANCH   3   4
ENDBRANCH   2   3
ENDBRANCH   1   2
END_RES LYS A 135
BEGIN_RES TYR A 136
REMARK  2 active torsions:
REMARK  status: ('A' for Active; 'I' for Inactive)
REMARK    5  A    between atoms: CA   and  CB  
REMARK    6  A    between atoms: CB   and  CG  
ROOT
ATOM      7  CA  TYR A 136      36.583  36.399   8.994  1.00 26.14     0.191 C 
ENDROOT
BRANCH   7   8
ATOM      8  CB  TYR A 136      37.367  36.835  10.240  1.00 28.16     0.060 C 
BRANCH   8   9
ATOM      9  CG  TYR A 136      36.843  38.118  10.836  1.00 31.88    -0.020 A 
ATOM     10  CD2 TYR A 136      35.799  38.822  10.232  1.00 32.67    -0.002 A 
ATOM     11  CE2 TYR A 136      35.320  40.015  10.792  1.00 33.89     0.027 A 
ATOM     12  CZ  TYR A 136      35.892  40.507  11.968  1.00 34.34     0.131 A 
ATOM     13  OH  TYR A 136      35.430  41.682  12.544  1.00 35.14    -0.190 OA
ATOM     14  CE1 TYR A 136      36.931  39.821  12.580  1.00 35.01     0.027 A 
ATOM     15  CD1 TYR A 136      37.403  38.638  12.009  1.00 33.57    -0.002 A 
ENDBRANCH   8   9
ENDBRANCH   7   8
END_RES TYR A 136
BEGIN_RES ASN A 133
REMARK  2 active torsions:
REMARK  status: ('A' for Active; 'I' for Inactive)
REMARK    7  A    between atoms: CA   and  CB  
REMARK    8  A    between atoms: CB   and  CG  
ROOT
ATOM     16  CA  ASN A 133      31.225  30.257  11.749  1.00 18.15     0.196 C 
ENDROOT
BRANCH  16  17
ATOM     17  CB  ASN A 133      30.092  31.240  11.460  1.00 18.27     0.126 C 
BRANCH  17  18
ATOM     18  CG  ASN A 133      28.757  30.578  11.317  1.00 18.94     0.276 C 
ATOM     19  OD1 ASN A 133      28.599  29.616  10.563  1.00 18.09    -0.269 OA
ATOM     20  ND2 ASN A 133      27.769  31.095  12.047  1.00 18.93    -0.107 N 
ENDBRANCH  17  18
ENDBRANCH  16  17
END_RES ASN A 133
