REMARK VINA RESULT:    -5.143      3.736      5.215
REMARK INTER + INTRA:          -8.142
REMARK INTER:                  -4.933
REMARK INTRA:                  -3.209
REMARK UNBOUND:                -2.398
REMARK SMILES CC(=O)c1ccccc1-n1cc(C)nn1
REMARK SMILES IDX 9 1 4 2 5 3 6 4 7 5 8 6 10 7 13 8 12 9 11 10 14 11 15 12
REMARK SMILES IDX 2 13 3 14 1 15
REMARK H PARENT
REMARK Flexibility Score: inf
ROOT
ATOM      1  C   UNL     1      32.596  34.775  14.458  1.00  0.00     0.077 A 
ATOM      2  C   UNL     1      31.844  35.449  13.501  1.00  0.00     0.043 A 
ATOM      3  C   UNL     1      32.449  36.205  12.517  1.00  0.00     0.014 A 
ATOM      4  C   UNL     1      33.801  36.321  12.443  1.00  0.00     0.001 A 
ATOM      5  C   UNL     1      34.583  35.672  13.369  1.00  0.00     0.002 A 
ATOM      6  C   UNL     1      33.963  34.923  14.342  1.00  0.00     0.029 A 
ENDROOT
BRANCH   1   7
ATOM      7  N   UNL     1      31.976  33.999  15.470  1.00  0.00    -0.220 N 
ATOM      8  C   UNL     1      30.293  31.084  16.924  1.00  0.00     0.070 C 
ATOM      9  C   UNL     1      30.951  32.358  16.569  1.00  0.00     0.080 A 
ATOM     10  C   UNL     1      31.461  32.763  15.367  1.00  0.00     0.140 A 
ATOM     11  N   UNL     1      31.179  33.408  17.412  1.00  0.00    -0.135 NA
ATOM     12  N   UNL     1      31.788  34.362  16.728  1.00  0.00    -0.062 NA
ENDBRANCH   1   7
BRANCH   2  13
ATOM     13  C   UNL     1      30.407  35.384  13.501  1.00  0.00     0.161 C 
ATOM     14  O   UNL     1      29.779  36.151  14.256  1.00  0.00    -0.294 OA
ATOM     15  C   UNL     1      29.677  34.444  12.640  1.00  0.00     0.093 C 
ENDBRANCH   2  13
TORSDOF 2
BEGIN_RES LYS A 135
REMARK  4 active torsions:
REMARK  status: ('A' for Active; 'I' for Inactive)
REMARK    1  A    between atoms: CA   and  CB  
REMARK    2  A    between atoms: CB   and  CG  
REMARK    3  A    between atoms: CG   and  CD  
REMARK    4  A    between atoms: CD   and  CE  
ROOT
ATOM      1  CA  LYS A 135      33.193  34.663   9.290  1.00 25.02     0.186 C 
ENDROOT
BRANCH   1   2
ATOM      2  CB  LYS A 135      32.060  35.360  10.034  1.00 26.63     0.034 C 
BRANCH   2   3
ATOM      3  CG  LYS A 135      30.821  35.555   9.199  1.00 29.45     0.005 C 
BRANCH   3   4
ATOM      4  CD  LYS A 135      30.166  34.217   8.890  1.00 32.00     0.041 C 
BRANCH   4   5
ATOM      5  CE  LYS A 135      28.698  34.407   8.559  1.00 34.25     0.338 C 
ATOM      6  NZ  LYS A 135      27.830  33.719   9.555  1.00 35.99     0.618 N 
ENDBRANCH   4   5
ENDBRANCH   3   4
ENDBRANCH   2   3
ENDBRANCH   1   2
END_RES LYS A 135
BEGIN_RES TYR A 136
REMARK  2 active torsions:
REMARK  status: ('A' for Active; 'I' for Inactive)
REMARK    5  A    between atoms: CA   and  CB  
REMARK    6  A    between atoms: CB   and  CG  
ROOT
ATOM      7  CA  TYR A 136      36.583  36.399   8.994  1.00 26.14     0.191 C 
ENDROOT
BRANCH   7   8
ATOM      8  CB  TYR A 136      37.367  36.835  10.240  1.00 28.16     0.060 C 
BRANCH   8   9
ATOM      9  CG  TYR A 136      36.728  38.005  10.948  1.00 31.88    -0.020 A 
ATOM     10  CD2 TYR A 136      37.002  38.275  12.290  1.00 32.67    -0.002 A 
ATOM     11  CE2 TYR A 136      36.402  39.363  12.939  1.00 33.89     0.027 A 
ATOM     12  CZ  TYR A 136      35.519  40.188  12.237  1.00 34.34     0.131 A 
ATOM     13  OH  TYR A 136      34.919  41.275  12.857  1.00 35.14    -0.190 OA
ATOM     14  CE1 TYR A 136      35.235  39.934  10.903  1.00 35.01     0.027 A 
ATOM     15  CD1 TYR A 136      35.834  38.843  10.270  1.00 33.57    -0.002 A 
ENDBRANCH   8   9
ENDBRANCH   7   8
END_RES TYR A 136
BEGIN_RES ASN A 133
REMARK  2 active torsions:
REMARK  status: ('A' for Active; 'I' for Inactive)
REMARK    7  A    between atoms: CA   and  CB  
REMARK    8  A    between atoms: CB   and  CG  
ROOT
ATOM     16  CA  ASN A 133      31.225  30.257  11.749  1.00 18.15     0.196 C 
ENDROOT
BRANCH  16  17
ATOM     17  CB  ASN A 133      30.092  31.240  11.460  1.00 18.27     0.126 C 
BRANCH  17  18
ATOM     18  CG  ASN A 133      28.756  30.579  11.321  1.00 18.94     0.276 C 
ATOM     19  OD1 ASN A 133      28.595  29.616  10.569  1.00 18.09    -0.269 OA
ATOM     20  ND2 ASN A 133      27.771  31.096  12.055  1.00 18.93    -0.107 N 
ENDBRANCH  17  18
ENDBRANCH  16  17
END_RES ASN A 133
