REMARK VINA RESULT:    -3.609      0.000      0.000
REMARK INTER + INTRA:          -7.536
REMARK INTER:                  -4.137
REMARK INTRA:                  -3.399
REMARK UNBOUND:                -3.399
REMARK SMILES Cc1cn(C(C)(C)CO)nn1
REMARK SMILES IDX 5 1 6 2 7 3 4 4 1 5 2 6 3 7 11 8 10 9 8 10 9 11
REMARK H PARENT 9 12
REMARK Flexibility Score: inf
ROOT
ATOM      1  C   UNL     1      37.613  34.368  13.155  1.00  0.00     0.082 C 
ATOM      2  C   UNL     1      38.647  35.348  12.704  1.00  0.00     0.039 C 
ATOM      3  C   UNL     1      37.978  33.872  14.546  1.00  0.00     0.039 C 
ENDROOT
BRANCH   1   4
ATOM      4  N   UNL     1      36.288  34.950  13.159  1.00  0.00    -0.244 N 
ATOM      5  C   UNL     1      33.921  37.794  13.263  1.00  0.00     0.070 C 
ATOM      6  C   UNL     1      34.666  36.494  13.208  1.00  0.00     0.080 A 
ATOM      7  C   UNL     1      36.029  36.274  13.225  1.00  0.00     0.135 A 
ATOM      8  N   UNL     1      34.131  35.263  13.129  1.00  0.00    -0.136 NA
ATOM      9  N   UNL     1      35.103  34.351  13.100  1.00  0.00    -0.067 NA
ENDBRANCH   1   4
BRANCH   1  10
ATOM     10  C   UNL     1      37.587  33.162  12.226  1.00  0.00     0.186 C 
BRANCH  10  11
ATOM     11  O   UNL     1      37.266  33.521  10.931  1.00  0.00    -0.394 OA
ATOM     12  H   UNL     1      37.934  33.094  10.337  1.00  0.00     0.210 HD
ENDBRANCH  10  11
ENDBRANCH   1  10
TORSDOF 3
BEGIN_RES LYS A 135
REMARK  4 active torsions:
REMARK  status: ('A' for Active; 'I' for Inactive)
REMARK    1  A    between atoms: CA   and  CB  
REMARK    2  A    between atoms: CB   and  CG  
REMARK    3  A    between atoms: CG   and  CD  
REMARK    4  A    between atoms: CD   and  CE  
ROOT
ATOM      1  CA  LYS A 135      33.193  34.663   9.290  1.00 25.02     0.186 C 
ENDROOT
BRANCH   1   2
ATOM      2  CB  LYS A 135      32.060  35.360  10.034  1.00 26.63     0.034 C 
BRANCH   2   3
ATOM      3  CG  LYS A 135      30.817  35.546   9.202  1.00 29.45     0.005 C 
BRANCH   3   4
ATOM      4  CD  LYS A 135      30.174  34.203   8.892  1.00 32.00     0.041 C 
BRANCH   4   5
ATOM      5  CE  LYS A 135      28.697  34.377   8.593  1.00 34.25     0.338 C 
ATOM      6  NZ  LYS A 135      27.860  33.650   9.587  1.00 35.99     0.618 N 
ENDBRANCH   4   5
ENDBRANCH   3   4
ENDBRANCH   2   3
ENDBRANCH   1   2
END_RES LYS A 135
BEGIN_RES TYR A 136
REMARK  2 active torsions:
REMARK  status: ('A' for Active; 'I' for Inactive)
REMARK    5  A    between atoms: CA   and  CB  
REMARK    6  A    between atoms: CB   and  CG  
ROOT
ATOM      7  CA  TYR A 136      36.583  36.399   8.994  1.00 26.14     0.191 C 
ENDROOT
BRANCH   7   8
ATOM      8  CB  TYR A 136      37.367  36.835  10.240  1.00 28.16     0.060 C 
BRANCH   8   9
ATOM      9  CG  TYR A 136      37.310  38.325  10.469  1.00 31.88    -0.020 A 
ATOM     10  CD2 TYR A 136      36.093  39.010  10.476  1.00 32.67    -0.002 A 
ATOM     11  CE2 TYR A 136      36.051  40.395  10.688  1.00 33.89     0.027 A 
ATOM     12  CZ  TYR A 136      37.238  41.101  10.895  1.00 34.34     0.131 A 
ATOM     13  OH  TYR A 136      37.220  42.471  11.115  1.00 35.14    -0.190 OA
ATOM     14  CE1 TYR A 136      38.456  40.437  10.891  1.00 35.01     0.027 A 
ATOM     15  CD1 TYR A 136      38.486  39.059  10.672  1.00 33.57    -0.002 A 
ENDBRANCH   8   9
ENDBRANCH   7   8
END_RES TYR A 136
BEGIN_RES ASN A 133
REMARK  2 active torsions:
REMARK  status: ('A' for Active; 'I' for Inactive)
REMARK    7  A    between atoms: CA   and  CB  
REMARK    8  A    between atoms: CB   and  CG  
ROOT
ATOM     16  CA  ASN A 133      31.225  30.257  11.749  1.00 18.15     0.196 C 
ENDROOT
BRANCH  16  17
ATOM     17  CB  ASN A 133      30.092  31.240  11.460  1.00 18.27     0.126 C 
BRANCH  17  18
ATOM     18  CG  ASN A 133      28.754  30.580  11.336  1.00 18.94     0.276 C 
ATOM     19  OD1 ASN A 133      28.578  29.633  10.568  1.00 18.09    -0.269 OA
ATOM     20  ND2 ASN A 133      27.784  31.082  12.099  1.00 18.93    -0.107 N 
ENDBRANCH  17  18
ENDBRANCH  16  17
END_RES ASN A 133
