REMARK VINA RESULT:    -4.180      3.666      5.187
REMARK INTER + INTRA:          -8.248
REMARK INTER:                  -5.373
REMARK INTRA:                  -2.875
REMARK UNBOUND:                -3.214
REMARK SMILES Cc1cn(-c2cccc(C=CC(=O)O)c2)nn1
REMARK SMILES IDX 10 1 11 2 9 3 5 4 15 5 6 6 7 7 8 8 4 9 1 10 2 11 3 12 17 13
REMARK SMILES IDX 16 14 12 15 13 16 14 17
REMARK H PARENT 14 18
REMARK Flexibility Score: inf
ROOT
ATOM      1  C   UNL     1      43.060  34.348  12.894  1.00  0.00     0.015 C 
ATOM      2  C   UNL     1      43.624  33.607  12.046  1.00  0.00     0.094 C 
ENDROOT
BRANCH   1   3
ATOM      3  C   UNL     1      41.858  35.118  12.904  1.00  0.00    -0.023 A 
ATOM      4  C   UNL     1      39.466  35.454  12.798  1.00  0.00     0.067 A 
ATOM      5  C   UNL     1      40.589  34.620  12.877  1.00  0.00     0.036 A 
ATOM      6  C   UNL     1      39.664  36.812  12.749  1.00  0.00     0.028 A 
ATOM      7  C   UNL     1      40.938  37.336  12.779  1.00  0.00     0.003 A 
ATOM      8  C   UNL     1      42.025  36.520  12.856  1.00  0.00     0.008 A 
BRANCH   4   9
ATOM      9  N   UNL     1      38.160  34.893  12.768  1.00  0.00    -0.220 N 
ATOM     10  C   UNL     1      34.555  34.740  13.534  1.00  0.00     0.070 C 
ATOM     11  C   UNL     1      35.971  34.578  13.097  1.00  0.00     0.080 A 
ATOM     12  C   UNL     1      37.045  35.407  13.346  1.00  0.00     0.140 A 
ATOM     13  N   UNL     1      36.483  33.566  12.360  1.00  0.00    -0.135 NA
ATOM     14  N   UNL     1      37.780  33.764  12.172  1.00  0.00    -0.062 NA
ENDBRANCH   4   9
ENDBRANCH   1   3
BRANCH   2  15
ATOM     15  C   UNL     1      43.377  33.176  10.720  1.00  0.00     0.328 C 
ATOM     16  O   UNL     1      44.094  33.310   9.709  1.00  0.00    -0.247 OA
BRANCH  15  17
ATOM     17  O   UNL     1      42.143  32.483  10.447  1.00  0.00    -0.478 OA
ATOM     18  H   UNL     1      41.652  32.790   9.605  1.00  0.00     0.297 HD
ENDBRANCH  15  17
ENDBRANCH   2  15
TORSDOF 4
BEGIN_RES LYS A 135
REMARK  4 active torsions:
REMARK  status: ('A' for Active; 'I' for Inactive)
REMARK    1  A    between atoms: CA   and  CB  
REMARK    2  A    between atoms: CB   and  CG  
REMARK    3  A    between atoms: CG   and  CD  
REMARK    4  A    between atoms: CD   and  CE  
ROOT
ATOM      1  CA  LYS A 135      33.193  34.663   9.290  1.00 25.02     0.186 C 
ENDROOT
BRANCH   1   2
ATOM      2  CB  LYS A 135      32.060  35.360  10.034  1.00 26.63     0.034 C 
BRANCH   2   3
ATOM      3  CG  LYS A 135      30.825  35.565   9.195  1.00 29.45     0.005 C 
BRANCH   3   4
ATOM      4  CD  LYS A 135      29.980  34.300   9.167  1.00 32.00     0.041 C 
BRANCH   4   5
ATOM      5  CE  LYS A 135      28.723  34.518   8.346  1.00 34.25     0.338 C 
ATOM      6  NZ  LYS A 135      29.010  35.325   7.128  1.00 35.99     0.618 N 
ENDBRANCH   4   5
ENDBRANCH   3   4
ENDBRANCH   2   3
ENDBRANCH   1   2
END_RES LYS A 135
BEGIN_RES TYR A 136
REMARK  2 active torsions:
REMARK  status: ('A' for Active; 'I' for Inactive)
REMARK    5  A    between atoms: CA   and  CB  
REMARK    6  A    between atoms: CB   and  CG  
ROOT
ATOM      7  CA  TYR A 136      36.583  36.399   8.994  1.00 26.14     0.191 C 
ENDROOT
BRANCH   7   8
ATOM      8  CB  TYR A 136      37.367  36.835  10.240  1.00 28.16     0.060 C 
BRANCH   8   9
ATOM      9  CG  TYR A 136      36.966  38.205  10.728  1.00 31.88    -0.020 A 
ATOM     10  CD2 TYR A 136      35.792  38.398  11.459  1.00 32.67    -0.002 A 
ATOM     11  CE2 TYR A 136      35.427  39.675  11.906  1.00 33.89     0.027 A 
ATOM     12  CZ  TYR A 136      36.245  40.770  11.618  1.00 34.34     0.131 A 
ATOM     13  OH  TYR A 136      35.908  42.043  12.057  1.00 35.14    -0.190 OA
ATOM     14  CE1 TYR A 136      37.415  40.598  10.892  1.00 35.01     0.027 A 
ATOM     15  CD1 TYR A 136      37.764  39.322  10.447  1.00 33.57    -0.002 A 
ENDBRANCH   8   9
ENDBRANCH   7   8
END_RES TYR A 136
BEGIN_RES ASN A 133
REMARK  2 active torsions:
REMARK  status: ('A' for Active; 'I' for Inactive)
REMARK    7  A    between atoms: CA   and  CB  
REMARK    8  A    between atoms: CB   and  CG  
ROOT
ATOM     16  CA  ASN A 133      31.225  30.257  11.749  1.00 18.15     0.196 C 
ENDROOT
BRANCH  16  17
ATOM     17  CB  ASN A 133      30.092  31.240  11.460  1.00 18.27     0.126 C 
BRANCH  17  18
ATOM     18  CG  ASN A 133      28.734  30.612  11.521  1.00 18.94     0.276 C 
ATOM     19  OD1 ASN A 133      27.915  30.945  12.380  1.00 18.09    -0.269 OA
ATOM     20  ND2 ASN A 133      28.479  29.684  10.599  1.00 18.93    -0.107 N 
ENDBRANCH  17  18
ENDBRANCH  16  17
END_RES ASN A 133
