REMARK VINA RESULT:    -2.840      6.275     13.908
REMARK INTER + INTRA:          -6.679
REMARK INTER:                  -3.280
REMARK INTRA:                  -3.399
REMARK UNBOUND:                -3.424
REMARK SMILES Cc1cn(CC(=O)O)nn1
REMARK SMILES IDX 5 1 4 2 1 3 2 4 3 5 10 6 9 7 6 8 7 9 8 10
REMARK H PARENT 8 11
REMARK Flexibility Score: inf
ROOT
ATOM      1  C   UNL     1      30.163  27.015  21.569  1.00  0.00     0.268 C 
ENDROOT
BRANCH   1   2
ATOM      2  N   UNL     1      29.305  27.782  20.718  1.00  0.00    -0.241 N 
ATOM      3  C   UNL     1      26.445  28.631  18.576  1.00  0.00     0.070 C 
ATOM      4  C   UNL     1      27.654  28.485  19.395  1.00  0.00     0.080 A 
ATOM      5  C   UNL     1      28.137  27.430  20.126  1.00  0.00     0.134 A 
ATOM      6  N   UNL     1      28.569  29.476  19.570  1.00  0.00    -0.136 NA
ATOM      7  N   UNL     1      29.526  29.031  20.351  1.00  0.00    -0.067 NA
ENDBRANCH   1   2
BRANCH   1   8
ATOM      8  C   UNL     1      31.592  27.242  21.195  1.00  0.00     0.325 C 
ATOM      9  O   UNL     1      32.476  27.463  22.071  1.00  0.00    -0.250 OA
BRANCH   8  10
ATOM     10  O   UNL     1      32.012  27.222  19.880  1.00  0.00    -0.480 OA
ATOM     11  H   UNL     1      31.889  26.454  19.257  1.00  0.00     0.296 HD
ENDBRANCH   8  10
ENDBRANCH   1   8
TORSDOF 3
BEGIN_RES LYS A 135
REMARK  4 active torsions:
REMARK  status: ('A' for Active; 'I' for Inactive)
REMARK    1  A    between atoms: CA   and  CB  
REMARK    2  A    between atoms: CB   and  CG  
REMARK    3  A    between atoms: CG   and  CD  
REMARK    4  A    between atoms: CD   and  CE  
ROOT
ATOM      1  CA  LYS A 135      33.193  34.663   9.290  1.00 25.02     0.186 C 
ENDROOT
BRANCH   1   2
ATOM      2  CB  LYS A 135      32.060  35.360  10.034  1.00 26.63     0.034 C 
BRANCH   2   3
ATOM      3  CG  LYS A 135      30.694  34.824   9.691  1.00 29.45     0.005 C 
BRANCH   3   4
ATOM      4  CD  LYS A 135      30.612  34.471   8.214  1.00 32.00     0.041 C 
BRANCH   4   5
ATOM      5  CE  LYS A 135      29.376  35.087   7.587  1.00 34.25     0.338 C 
ATOM      6  NZ  LYS A 135      28.138  34.621   8.271  1.00 35.99     0.618 N 
ENDBRANCH   4   5
ENDBRANCH   3   4
ENDBRANCH   2   3
ENDBRANCH   1   2
END_RES LYS A 135
BEGIN_RES TYR A 136
REMARK  2 active torsions:
REMARK  status: ('A' for Active; 'I' for Inactive)
REMARK    5  A    between atoms: CA   and  CB  
REMARK    6  A    between atoms: CB   and  CG  
ROOT
ATOM      7  CA  TYR A 136      36.583  36.399   8.994  1.00 26.14     0.191 C 
ENDROOT
BRANCH   7   8
ATOM      8  CB  TYR A 136      37.367  36.835  10.240  1.00 28.16     0.060 C 
BRANCH   8   9
ATOM      9  CG  TYR A 136      37.175  38.296  10.564  1.00 31.88    -0.020 A 
ATOM     10  CD2 TYR A 136      37.496  38.805  11.825  1.00 32.67    -0.002 A 
ATOM     11  CE2 TYR A 136      37.312  40.164  12.116  1.00 33.89     0.027 A 
ATOM     12  CZ  TYR A 136      36.804  41.021  11.137  1.00 34.34     0.131 A 
ATOM     13  OH  TYR A 136      36.620  42.371  11.401  1.00 35.14    -0.190 OA
ATOM     14  CE1 TYR A 136      36.479  40.532   9.880  1.00 35.01     0.027 A 
ATOM     15  CD1 TYR A 136      36.660  39.176   9.604  1.00 33.57    -0.002 A 
ENDBRANCH   8   9
ENDBRANCH   7   8
END_RES TYR A 136
BEGIN_RES ASN A 133
REMARK  2 active torsions:
REMARK  status: ('A' for Active; 'I' for Inactive)
REMARK    7  A    between atoms: CA   and  CB  
REMARK    8  A    between atoms: CB   and  CG  
ROOT
ATOM     16  CA  ASN A 133      31.225  30.257  11.749  1.00 18.15     0.196 C 
ENDROOT
BRANCH  16  17
ATOM     17  CB  ASN A 133      30.092  31.240  11.460  1.00 18.27     0.126 C 
BRANCH  17  18
ATOM     18  CG  ASN A 133      28.749  30.584  11.366  1.00 18.94     0.276 C 
ATOM     19  OD1 ASN A 133      28.564  29.612  10.632  1.00 18.09    -0.269 OA
ATOM     20  ND2 ASN A 133      27.786  31.118  12.117  1.00 18.93    -0.107 N 
ENDBRANCH  17  18
ENDBRANCH  16  17
END_RES ASN A 133
