REMARK VINA RESULT:    -2.623      6.046     11.058
REMARK INTER + INTRA:          -6.431
REMARK INTER:                  -3.038
REMARK INTRA:                  -3.393
REMARK UNBOUND:                -3.424
REMARK SMILES Cc1cn(CC(=O)O)nn1
REMARK SMILES IDX 5 1 4 2 1 3 2 4 3 5 10 6 9 7 6 8 7 9 8 10
REMARK H PARENT 8 11
REMARK Flexibility Score: inf
ROOT
ATOM      1  C   UNL     1      28.976  32.731  15.931  1.00  0.00     0.268 C 
ENDROOT
BRANCH   1   2
ATOM      2  N   UNL     1      28.453  31.449  16.298  1.00  0.00    -0.241 N 
ATOM      3  C   UNL     1      26.785  28.853  18.288  1.00  0.00     0.070 C 
ATOM      4  C   UNL     1      27.481  29.742  17.350  1.00  0.00     0.080 A 
ATOM      5  C   UNL     1      27.803  31.073  17.426  1.00  0.00     0.134 A 
ATOM      6  N   UNL     1      27.958  29.338  16.143  1.00  0.00    -0.136 NA
ATOM      7  N   UNL     1      28.523  30.364  15.550  1.00  0.00    -0.067 NA
ENDBRANCH   1   2
BRANCH   1   8
ATOM      8  C   UNL     1      30.283  32.568  15.226  1.00  0.00     0.325 C 
ATOM      9  O   UNL     1      31.375  32.533  15.861  1.00  0.00    -0.250 OA
BRANCH   8  10
ATOM     10  O   UNL     1      30.360  32.449  13.853  1.00  0.00    -0.480 OA
ATOM     11  H   UNL     1      31.202  32.301  13.342  1.00  0.00     0.296 HD
ENDBRANCH   8  10
ENDBRANCH   1   8
TORSDOF 3
BEGIN_RES LYS A 135
REMARK  4 active torsions:
REMARK  status: ('A' for Active; 'I' for Inactive)
REMARK    1  A    between atoms: CA   and  CB  
REMARK    2  A    between atoms: CB   and  CG  
REMARK    3  A    between atoms: CG   and  CD  
REMARK    4  A    between atoms: CD   and  CE  
ROOT
ATOM      1  CA  LYS A 135      33.193  34.663   9.290  1.00 25.02     0.186 C 
ENDROOT
BRANCH   1   2
ATOM      2  CB  LYS A 135      32.060  35.360  10.034  1.00 26.63     0.034 C 
BRANCH   2   3
ATOM      3  CG  LYS A 135      30.824  35.563   9.196  1.00 29.45     0.005 C 
BRANCH   3   4
ATOM      4  CD  LYS A 135      30.223  34.226   8.793  1.00 32.00     0.041 C 
BRANCH   4   5
ATOM      5  CE  LYS A 135      28.733  34.365   8.544  1.00 34.25     0.338 C 
ATOM      6  NZ  LYS A 135      27.945  33.712   9.626  1.00 35.99     0.618 N 
ENDBRANCH   4   5
ENDBRANCH   3   4
ENDBRANCH   2   3
ENDBRANCH   1   2
END_RES LYS A 135
BEGIN_RES TYR A 136
REMARK  2 active torsions:
REMARK  status: ('A' for Active; 'I' for Inactive)
REMARK    5  A    between atoms: CA   and  CB  
REMARK    6  A    between atoms: CB   and  CG  
ROOT
ATOM      7  CA  TYR A 136      36.583  36.399   8.994  1.00 26.14     0.191 C 
ENDROOT
BRANCH   7   8
ATOM      8  CB  TYR A 136      37.367  36.835  10.240  1.00 28.16     0.060 C 
BRANCH   8   9
ATOM      9  CG  TYR A 136      37.190  38.300  10.553  1.00 31.88    -0.020 A 
ATOM     10  CD2 TYR A 136      36.441  39.133   9.719  1.00 32.67    -0.002 A 
ATOM     11  CE2 TYR A 136      36.284  40.493  10.018  1.00 33.89     0.027 A 
ATOM     12  CZ  TYR A 136      36.883  41.025  11.163  1.00 34.34     0.131 A 
ATOM     13  OH  TYR A 136      36.736  42.368  11.482  1.00 35.14    -0.190 OA
ATOM     14  CE1 TYR A 136      37.632  40.213  12.002  1.00 35.01     0.027 A 
ATOM     15  CD1 TYR A 136      37.786  38.861  11.690  1.00 33.57    -0.002 A 
ENDBRANCH   8   9
ENDBRANCH   7   8
END_RES TYR A 136
BEGIN_RES ASN A 133
REMARK  2 active torsions:
REMARK  status: ('A' for Active; 'I' for Inactive)
REMARK    7  A    between atoms: CA   and  CB  
REMARK    8  A    between atoms: CB   and  CG  
ROOT
ATOM     16  CA  ASN A 133      31.225  30.257  11.749  1.00 18.15     0.196 C 
ENDROOT
BRANCH  16  17
ATOM     17  CB  ASN A 133      30.092  31.240  11.460  1.00 18.27     0.126 C 
BRANCH  17  18
ATOM     18  CG  ASN A 133      28.752  30.581  11.345  1.00 18.94     0.276 C 
ATOM     19  OD1 ASN A 133      28.577  29.615  10.600  1.00 18.09    -0.269 OA
ATOM     20  ND2 ASN A 133      27.780  31.105  12.091  1.00 18.93    -0.107 N 
ENDBRANCH  17  18
ENDBRANCH  16  17
END_RES ASN A 133
