REMARK VINA RESULT:    -5.017      3.645      9.106
REMARK INTER + INTRA:          -8.362
REMARK INTER:                  -7.256
REMARK INTRA:                  -1.106
REMARK UNBOUND:                -3.051
REMARK SMILES Cc1cn(-c2c3ccccc3nc3ccccc23)nn1
REMARK SMILES IDX 5 1 6 2 7 3 8 4 9 5 10 6 11 7 12 8 13 9 14 10 15 11 16 12
REMARK SMILES IDX 17 13 18 14 4 15 1 16 2 17 3 18 20 19 19 20
REMARK H PARENT
REMARK Flexibility Score: inf
ROOT
ATOM      1  C   UNL     1      27.393  36.367   7.738  1.00  0.00     0.085 A 
ATOM      2  C   UNL     1      28.319  35.482   8.262  1.00  0.00     0.027 A 
ATOM      3  C   UNL     1      29.621  35.479   7.810  1.00  0.00     0.012 A 
ATOM      4  C   UNL     1      30.523  34.587   8.349  1.00  0.00     0.001 A 
ATOM      5  C   UNL     1      30.078  33.726   9.329  1.00  0.00     0.002 A 
ATOM      6  C   UNL     1      28.784  33.734   9.775  1.00  0.00     0.029 A 
ATOM      7  C   UNL     1      27.855  34.629   9.242  1.00  0.00     0.073 A 
ATOM      8  N   UNL     1      26.592  34.618   9.693  1.00  0.00    -0.248 NA
ATOM      9  C   UNL     1      25.673  35.489   9.179  1.00  0.00     0.073 A 
ATOM     10  C   UNL     1      24.370  35.486   9.639  1.00  0.00     0.029 A 
ATOM     11  C   UNL     1      23.491  36.388   9.081  1.00  0.00     0.002 A 
ATOM     12  C   UNL     1      23.886  37.273   8.095  1.00  0.00     0.001 A 
ATOM     13  C   UNL     1      25.171  37.261   7.658  1.00  0.00     0.012 A 
ATOM     14  C   UNL     1      26.068  36.369   8.199  1.00  0.00     0.027 A 
ENDROOT
BRANCH   1  15
ATOM     15  N   UNL     1      27.768  37.287   6.725  1.00  0.00    -0.219 N 
ATOM     16  C   UNL     1      29.070  40.444   5.384  1.00  0.00     0.070 C 
ATOM     17  C   UNL     1      28.503  39.077   5.664  1.00  0.00     0.080 A 
ATOM     18  C   UNL     1      28.278  38.512   6.899  1.00  0.00     0.140 A 
ATOM     19  N   UNL     1      28.118  38.174   4.753  1.00  0.00    -0.135 NA
ATOM     20  N   UNL     1      27.689  37.128   5.426  1.00  0.00    -0.062 NA
ENDBRANCH   1  15
TORSDOF 1
BEGIN_RES LYS A 135
REMARK  4 active torsions:
REMARK  status: ('A' for Active; 'I' for Inactive)
REMARK    1  A    between atoms: CA   and  CB  
REMARK    2  A    between atoms: CB   and  CG  
REMARK    3  A    between atoms: CG   and  CD  
REMARK    4  A    between atoms: CD   and  CE  
ROOT
ATOM      1  CA  LYS A 135      33.193  34.663   9.290  1.00 25.02     0.186 C 
ENDROOT
BRANCH   1   2
ATOM      2  CB  LYS A 135      32.060  35.360  10.034  1.00 26.63     0.034 C 
BRANCH   2   3
ATOM      3  CG  LYS A 135      32.463  35.889  11.386  1.00 29.45     0.005 C 
BRANCH   3   4
ATOM      4  CD  LYS A 135      31.608  35.270  12.481  1.00 32.00     0.041 C 
BRANCH   4   5
ATOM      5  CE  LYS A 135      32.122  35.673  13.850  1.00 34.25     0.338 C 
ATOM      6  NZ  LYS A 135      33.065  34.655  14.390  1.00 35.99     0.618 N 
ENDBRANCH   4   5
ENDBRANCH   3   4
ENDBRANCH   2   3
ENDBRANCH   1   2
END_RES LYS A 135
BEGIN_RES TYR A 136
REMARK  2 active torsions:
REMARK  status: ('A' for Active; 'I' for Inactive)
REMARK    5  A    between atoms: CA   and  CB  
REMARK    6  A    between atoms: CB   and  CG  
ROOT
ATOM      7  CA  TYR A 136      36.583  36.399   8.994  1.00 26.14     0.191 C 
ENDROOT
BRANCH   7   8
ATOM      8  CB  TYR A 136      37.367  36.835  10.240  1.00 28.16     0.060 C 
BRANCH   8   9
ATOM      9  CG  TYR A 136      37.452  35.747  11.282  1.00 31.88    -0.020 A 
ATOM     10  CD2 TYR A 136      36.307  35.268  11.922  1.00 32.67    -0.002 A 
ATOM     11  CE2 TYR A 136      36.396  34.258  12.890  1.00 33.89     0.027 A 
ATOM     12  CZ  TYR A 136      37.644  33.724  13.221  1.00 34.34     0.131 A 
ATOM     13  OH  TYR A 136      37.756  32.718  14.172  1.00 35.14    -0.190 OA
ATOM     14  CE1 TYR A 136      38.792  34.189  12.597  1.00 35.01     0.027 A 
ATOM     15  CD1 TYR A 136      38.691  35.199  11.639  1.00 33.57    -0.002 A 
ENDBRANCH   8   9
ENDBRANCH   7   8
END_RES TYR A 136
BEGIN_RES ASN A 133
REMARK  2 active torsions:
REMARK  status: ('A' for Active; 'I' for Inactive)
REMARK    7  A    between atoms: CA   and  CB  
REMARK    8  A    between atoms: CB   and  CG  
ROOT
ATOM     16  CA  ASN A 133      31.225  30.257  11.749  1.00 18.15     0.196 C 
ENDROOT
BRANCH  16  17
ATOM     17  CB  ASN A 133      30.092  31.240  11.460  1.00 18.27     0.126 C 
BRANCH  17  18
ATOM     18  CG  ASN A 133      28.756  30.578  11.318  1.00 18.94     0.276 C 
ATOM     19  OD1 ASN A 133      28.599  29.611  10.571  1.00 18.09    -0.269 OA
ATOM     20  ND2 ASN A 133      27.768  31.100  12.043  1.00 18.93    -0.107 N 
ENDBRANCH  17  18
ENDBRANCH  16  17
END_RES ASN A 133
