REMARK VINA RESULT:    -3.399      7.953     11.613
REMARK INTER + INTRA:          -7.142
REMARK INTER:                  -4.025
REMARK INTRA:                  -3.117
REMARK UNBOUND:                -3.047
REMARK SMILES Cc1cn(CCC(=O)O)nn1
REMARK SMILES IDX 6 1 5 2 4 3 1 4 2 5 3 6 11 7 10 8 7 9 8 10 9 11
REMARK H PARENT 9 12
REMARK Flexibility Score: inf
ROOT
ATOM      1  C   UNL     1      39.769  37.403   4.107  1.00  0.00     0.146 C 
ENDROOT
BRANCH   1   2
ATOM      2  C   UNL     1      38.798  37.271   2.930  1.00  0.00     0.158 C 
BRANCH   2   3
ATOM      3  N   UNL     1      37.487  37.728   3.314  1.00  0.00    -0.252 N 
ATOM      4  C   UNL     1      34.882  38.911   5.593  1.00  0.00     0.070 C 
ATOM      5  C   UNL     1      35.743  38.452   4.469  1.00  0.00     0.080 A 
ATOM      6  C   UNL     1      37.088  38.056   4.562  1.00  0.00     0.134 A 
ATOM      7  N   UNL     1      35.409  38.345   3.195  1.00  0.00    -0.136 NA
ATOM      8  N   UNL     1      36.471  37.908   2.518  1.00  0.00    -0.067 NA
ENDBRANCH   2   3
ENDBRANCH   1   2
BRANCH   1   9
ATOM      9  C   UNL     1      40.263  36.047   4.390  1.00  0.00     0.305 C 
ATOM     10  O   UNL     1      40.967  35.862   5.399  1.00  0.00    -0.252 OA
BRANCH   9  11
ATOM     11  O   UNL     1      39.957  34.991   3.553  1.00  0.00    -0.481 OA
ATOM     12  H   UNL     1      39.044  34.851   3.136  1.00  0.00     0.296 HD
ENDBRANCH   9  11
ENDBRANCH   1   9
TORSDOF 4
BEGIN_RES LYS A 135
REMARK  4 active torsions:
REMARK  status: ('A' for Active; 'I' for Inactive)
REMARK    1  A    between atoms: CA   and  CB  
REMARK    2  A    between atoms: CB   and  CG  
REMARK    3  A    between atoms: CG   and  CD  
REMARK    4  A    between atoms: CD   and  CE  
ROOT
ATOM      1  CA  LYS A 135      33.193  34.663   9.290  1.00 25.02     0.186 C 
ENDROOT
BRANCH   1   2
ATOM      2  CB  LYS A 135      32.060  35.360  10.034  1.00 26.63     0.034 C 
BRANCH   2   3
ATOM      3  CG  LYS A 135      30.863  35.657   9.168  1.00 29.45     0.005 C 
BRANCH   3   4
ATOM      4  CD  LYS A 135      30.267  34.371   8.617  1.00 32.00     0.041 C 
BRANCH   4   5
ATOM      5  CE  LYS A 135      28.811  34.576   8.243  1.00 34.25     0.338 C 
ATOM      6  NZ  LYS A 135      28.685  35.405   7.013  1.00 35.99     0.618 N 
ENDBRANCH   4   5
ENDBRANCH   3   4
ENDBRANCH   2   3
ENDBRANCH   1   2
END_RES LYS A 135
BEGIN_RES TYR A 136
REMARK  2 active torsions:
REMARK  status: ('A' for Active; 'I' for Inactive)
REMARK    5  A    between atoms: CA   and  CB  
REMARK    6  A    between atoms: CB   and  CG  
ROOT
ATOM      7  CA  TYR A 136      36.583  36.399   8.994  1.00 26.14     0.191 C 
ENDROOT
BRANCH   7   8
ATOM      8  CB  TYR A 136      37.367  36.835  10.240  1.00 28.16     0.060 C 
BRANCH   8   9
ATOM      9  CG  TYR A 136      37.194  38.301  10.551  1.00 31.88    -0.020 A 
ATOM     10  CD2 TYR A 136      37.020  38.747  11.863  1.00 32.67    -0.002 A 
ATOM     11  CE2 TYR A 136      36.859  40.111  12.140  1.00 33.89     0.027 A 
ATOM     12  CZ  TYR A 136      36.871  41.038  11.095  1.00 34.34     0.131 A 
ATOM     13  OH  TYR A 136      36.720  42.395  11.347  1.00 35.14    -0.190 OA
ATOM     14  CE1 TYR A 136      37.042  40.613   9.786  1.00 35.01     0.027 A 
ATOM     15  CD1 TYR A 136      37.195  39.251   9.521  1.00 33.57    -0.002 A 
ENDBRANCH   8   9
ENDBRANCH   7   8
END_RES TYR A 136
BEGIN_RES ASN A 133
REMARK  2 active torsions:
REMARK  status: ('A' for Active; 'I' for Inactive)
REMARK    7  A    between atoms: CA   and  CB  
REMARK    8  A    between atoms: CB   and  CG  
ROOT
ATOM     16  CA  ASN A 133      31.225  30.257  11.749  1.00 18.15     0.196 C 
ENDROOT
BRANCH  16  17
ATOM     17  CB  ASN A 133      30.092  31.240  11.460  1.00 18.27     0.126 C 
BRANCH  17  18
ATOM     18  CG  ASN A 133      28.748  30.585  11.374  1.00 18.94     0.276 C 
ATOM     19  OD1 ASN A 133      28.563  29.600  10.658  1.00 18.09    -0.269 OA
ATOM     20  ND2 ASN A 133      27.784  31.134  12.112  1.00 18.93    -0.107 N 
ENDBRANCH  17  18
ENDBRANCH  16  17
END_RES ASN A 133
