REMARK VINA RESULT:    -3.873      3.467      5.114
REMARK INTER + INTRA:          -7.811
REMARK INTER:                  -4.546
REMARK INTRA:                  -3.265
REMARK UNBOUND:                -3.259
REMARK SMILES Cc1cn(Cc2cccc(C#N)c2)nn1
REMARK SMILES IDX 6 1 7 2 8 3 9 4 10 5 13 6 5 7 4 8 1 9 2 10 3 11 15 12 14 13
REMARK SMILES IDX 11 14 12 15
REMARK H PARENT
REMARK Flexibility Score: inf
ROOT
ATOM      1  C   UNL     1      30.478  32.085  18.342  1.00  0.00    -0.025 A 
ATOM      2  C   UNL     1      30.224  31.277  17.261  1.00  0.00     0.006 A 
ATOM      3  C   UNL     1      30.624  31.590  15.976  1.00  0.00     0.002 A 
ATOM      4  C   UNL     1      31.308  32.772  15.781  1.00  0.00     0.019 A 
ATOM      5  C   UNL     1      31.585  33.617  16.836  1.00  0.00     0.052 A 
ATOM      6  C   UNL     1      31.164  33.262  18.119  1.00  0.00     0.025 A 
ENDROOT
BRANCH   1   7
ATOM      7  C   UNL     1      30.053  31.754  19.715  1.00  0.00     0.181 C 
BRANCH   7   8
ATOM      8  N   UNL     1      30.860  30.753  20.336  1.00  0.00    -0.248 N 
ATOM      9  C   UNL     1      31.623  27.284  21.157  1.00  0.00     0.070 C 
ATOM     10  C   UNL     1      31.556  28.770  20.975  1.00  0.00     0.080 A 
ATOM     11  C   UNL     1      30.589  29.437  20.280  1.00  0.00     0.134 A 
ATOM     12  N   UNL     1      32.410  29.697  21.448  1.00  0.00    -0.136 NA
ATOM     13  N   UNL     1      31.975  30.878  21.054  1.00  0.00    -0.067 NA
ENDBRANCH   7   8
ENDBRANCH   1   7
BRANCH   5  14
ATOM     14  C   UNL     1      32.300  34.829  16.563  1.00  0.00     0.099 C 
ATOM     15  N   UNL     1      32.891  35.797  16.351  1.00  0.00    -0.192 NA
ENDBRANCH   5  14
TORSDOF 3
BEGIN_RES LYS A 135
REMARK  4 active torsions:
REMARK  status: ('A' for Active; 'I' for Inactive)
REMARK    1  A    between atoms: CA   and  CB  
REMARK    2  A    between atoms: CB   and  CG  
REMARK    3  A    between atoms: CG   and  CD  
REMARK    4  A    between atoms: CD   and  CE  
ROOT
ATOM      1  CA  LYS A 135      33.193  34.663   9.290  1.00 25.02     0.186 C 
ENDROOT
BRANCH   1   2
ATOM      2  CB  LYS A 135      32.060  35.360  10.034  1.00 26.63     0.034 C 
BRANCH   2   3
ATOM      3  CG  LYS A 135      30.807  35.520   9.211  1.00 29.45     0.005 C 
BRANCH   3   4
ATOM      4  CD  LYS A 135      30.143  34.172   8.979  1.00 32.00     0.041 C 
BRANCH   4   5
ATOM      5  CE  LYS A 135      28.678  34.353   8.629  1.00 34.25     0.338 C 
ATOM      6  NZ  LYS A 135      27.801  33.685   9.630  1.00 35.99     0.618 N 
ENDBRANCH   4   5
ENDBRANCH   3   4
ENDBRANCH   2   3
ENDBRANCH   1   2
END_RES LYS A 135
BEGIN_RES TYR A 136
REMARK  2 active torsions:
REMARK  status: ('A' for Active; 'I' for Inactive)
REMARK    5  A    between atoms: CA   and  CB  
REMARK    6  A    between atoms: CB   and  CG  
ROOT
ATOM      7  CA  TYR A 136      36.583  36.399   8.994  1.00 26.14     0.191 C 
ENDROOT
BRANCH   7   8
ATOM      8  CB  TYR A 136      37.367  36.835  10.240  1.00 28.16     0.060 C 
BRANCH   8   9
ATOM      9  CG  TYR A 136      37.157  38.291  10.577  1.00 31.88    -0.020 A 
ATOM     10  CD2 TYR A 136      36.521  38.674  11.760  1.00 32.67    -0.002 A 
ATOM     11  CE2 TYR A 136      36.329  40.029  12.063  1.00 33.89     0.027 A 
ATOM     12  CZ  TYR A 136      36.779  41.009  11.175  1.00 34.34     0.131 A 
ATOM     13  OH  TYR A 136      36.607  42.357  11.458  1.00 35.14    -0.190 OA
ATOM     14  CE1 TYR A 136      37.413  40.646   9.995  1.00 35.01     0.027 A 
ATOM     15  CD1 TYR A 136      37.592  39.293   9.701  1.00 33.57    -0.002 A 
ENDBRANCH   8   9
ENDBRANCH   7   8
END_RES TYR A 136
BEGIN_RES ASN A 133
REMARK  2 active torsions:
REMARK  status: ('A' for Active; 'I' for Inactive)
REMARK    7  A    between atoms: CA   and  CB  
REMARK    8  A    between atoms: CB   and  CG  
ROOT
ATOM     16  CA  ASN A 133      31.225  30.257  11.749  1.00 18.15     0.196 C 
ENDROOT
BRANCH  16  17
ATOM     17  CB  ASN A 133      30.092  31.240  11.460  1.00 18.27     0.126 C 
BRANCH  17  18
ATOM     18  CG  ASN A 133      28.751  30.583  11.356  1.00 18.94     0.276 C 
ATOM     19  OD1 ASN A 133      28.571  29.612  10.618  1.00 18.09    -0.269 OA
ATOM     20  ND2 ASN A 133      27.782  31.113  12.102  1.00 18.93    -0.107 N 
ENDBRANCH  17  18
ENDBRANCH  16  17
END_RES ASN A 133
