REMARK VINA RESULT:    -4.460      3.818      6.355
REMARK INTER + INTRA:          -7.887
REMARK INTER:                  -4.653
REMARK INTRA:                  -3.234
REMARK UNBOUND:                -3.166
REMARK SMILES Cc1cn(-c2cnc3ccccc3c2)nn1
REMARK SMILES IDX 5 1 6 2 7 3 8 4 9 5 10 6 11 7 12 8 13 9 14 10 4 11 1 12 2 13
REMARK SMILES IDX 3 14 16 15 15 16
REMARK H PARENT
REMARK Flexibility Score: inf
ROOT
ATOM      1  C   UNL     1      25.688  30.505  15.238  1.00  0.00     0.085 A 
ATOM      2  C   UNL     1      25.183  29.676  16.199  1.00  0.00     0.140 A 
ATOM      3  N   UNL     1      24.017  29.031  15.996  1.00  0.00    -0.254 NA
ATOM      4  C   UNL     1      23.310  29.173  14.855  1.00  0.00     0.070 A 
ATOM      5  C   UNL     1      22.116  28.516  14.639  1.00  0.00     0.029 A 
ATOM      6  C   UNL     1      21.422  28.690  13.455  1.00  0.00     0.002 A 
ATOM      7  C   UNL     1      21.921  29.532  12.459  1.00  0.00     0.001 A 
ATOM      8  C   UNL     1      23.099  30.179  12.674  1.00  0.00     0.010 A 
ATOM      9  C   UNL     1      23.781  30.000  13.856  1.00  0.00     0.002 A 
ATOM     10  C   UNL     1      24.970  30.654  14.069  1.00  0.00     0.040 A 
ENDROOT
BRANCH   1  11
ATOM     11  N   UNL     1      26.930  31.216  15.409  1.00  0.00    -0.219 N 
ATOM     12  C   UNL     1      30.497  31.493  16.206  1.00  0.00     0.070 C 
ATOM     13  C   UNL     1      29.065  31.659  15.839  1.00  0.00     0.080 A 
ATOM     14  C   UNL     1      28.098  30.662  15.781  1.00  0.00     0.140 A 
ATOM     15  N   UNL     1      28.411  32.784  15.490  1.00  0.00    -0.135 NA
ATOM     16  N   UNL     1      27.142  32.508  15.237  1.00  0.00    -0.062 NA
ENDBRANCH   1  11
TORSDOF 1
BEGIN_RES LYS A 135
REMARK  4 active torsions:
REMARK  status: ('A' for Active; 'I' for Inactive)
REMARK    1  A    between atoms: CA   and  CB  
REMARK    2  A    between atoms: CB   and  CG  
REMARK    3  A    between atoms: CG   and  CD  
REMARK    4  A    between atoms: CD   and  CE  
ROOT
ATOM      1  CA  LYS A 135      33.193  34.663   9.290  1.00 25.02     0.186 C 
ENDROOT
BRANCH   1   2
ATOM      2  CB  LYS A 135      32.060  35.360  10.034  1.00 26.63     0.034 C 
BRANCH   2   3
ATOM      3  CG  LYS A 135      30.832  35.584   9.189  1.00 29.45     0.005 C 
BRANCH   3   4
ATOM      4  CD  LYS A 135      30.227  34.257   8.759  1.00 32.00     0.041 C 
BRANCH   4   5
ATOM      5  CE  LYS A 135      28.738  34.405   8.512  1.00 34.25     0.338 C 
ATOM      6  NZ  LYS A 135      27.948  33.737   9.583  1.00 35.99     0.618 N 
ENDBRANCH   4   5
ENDBRANCH   3   4
ENDBRANCH   2   3
ENDBRANCH   1   2
END_RES LYS A 135
BEGIN_RES TYR A 136
REMARK  2 active torsions:
REMARK  status: ('A' for Active; 'I' for Inactive)
REMARK    5  A    between atoms: CA   and  CB  
REMARK    6  A    between atoms: CB   and  CG  
ROOT
ATOM      7  CA  TYR A 136      36.583  36.399   8.994  1.00 26.14     0.191 C 
ENDROOT
BRANCH   7   8
ATOM      8  CB  TYR A 136      37.367  36.835  10.240  1.00 28.16     0.060 C 
BRANCH   8   9
ATOM      9  CG  TYR A 136      37.198  38.303  10.548  1.00 31.88    -0.020 A 
ATOM     10  CD2 TYR A 136      38.266  39.195  10.424  1.00 32.67    -0.002 A 
ATOM     11  CE2 TYR A 136      38.099  40.556  10.714  1.00 33.89     0.027 A 
ATOM     12  CZ  TYR A 136      36.853  41.029  11.131  1.00 34.34     0.131 A 
ATOM     13  OH  TYR A 136      36.663  42.373  11.417  1.00 35.14    -0.190 OA
ATOM     14  CE1 TYR A 136      35.782  40.156  11.261  1.00 35.01     0.027 A 
ATOM     15  CD1 TYR A 136      35.961  38.802  10.975  1.00 33.57    -0.002 A 
ENDBRANCH   8   9
ENDBRANCH   7   8
END_RES TYR A 136
BEGIN_RES ASN A 133
REMARK  2 active torsions:
REMARK  status: ('A' for Active; 'I' for Inactive)
REMARK    7  A    between atoms: CA   and  CB  
REMARK    8  A    between atoms: CB   and  CG  
ROOT
ATOM     16  CA  ASN A 133      31.225  30.257  11.749  1.00 18.15     0.196 C 
ENDROOT
BRANCH  16  17
ATOM     17  CB  ASN A 133      30.092  31.240  11.460  1.00 18.27     0.126 C 
BRANCH  17  18
ATOM     18  CG  ASN A 133      28.759  30.577  11.302  1.00 18.94     0.276 C 
ATOM     19  OD1 ASN A 133      28.617  29.595  10.570  1.00 18.09    -0.269 OA
ATOM     20  ND2 ASN A 133      27.755  31.113  11.994  1.00 18.93    -0.107 N 
ENDBRANCH  17  18
ENDBRANCH  16  17
END_RES ASN A 133
