REMARK VINA RESULT:    -3.897      3.363      4.529
REMARK INTER + INTRA:          -7.585
REMARK INTER:                  -4.377
REMARK INTRA:                  -3.208
REMARK UNBOUND:                -3.232
REMARK SMILES Cc1cn(Cc2cccc(Br)c2)nn1
REMARK SMILES IDX 5 1 4 2 1 3 2 4 3 5 14 6 13 7 6 8 7 9 12 10 8 11 10 12 9 13
REMARK SMILES IDX 11 14
REMARK H PARENT
REMARK Flexibility Score: inf
ROOT
ATOM      1  C   UNL     1      38.548  35.449  16.268  1.00  0.00     0.181 C 
ENDROOT
BRANCH   1   2
ATOM      2  N   UNL     1      37.820  34.953  15.129  1.00  0.00    -0.248 N 
ATOM      3  C   UNL     1      37.177  33.111  12.044  1.00  0.00     0.070 C 
ATOM      4  C   UNL     1      37.230  33.919  13.271  1.00  0.00     0.080 A 
ATOM      5  C   UNL     1      38.259  34.133  14.158  1.00  0.00     0.134 A 
ATOM      6  N   UNL     1      36.189  34.637  13.756  1.00  0.00    -0.136 NA
ATOM      7  N   UNL     1      36.559  35.252  14.873  1.00  0.00    -0.067 NA
ENDBRANCH   1   2
BRANCH   1   8
ATOM      8  C   UNL     1      38.266  34.698  17.500  1.00  0.00    -0.025 A 
ATOM      9  C   UNL     1      38.876  33.465  17.675  1.00  0.00     0.006 A 
ATOM     10  C   UNL     1      37.432  35.129  18.508  1.00  0.00     0.021 A 
ATOM     11  C   UNL     1      38.668  32.696  18.800  1.00  0.00     0.002 A 
ATOM     12  C   UNL     1      37.215  34.364  19.641  1.00  0.00     0.018 A 
ATOM     13  C   UNL     1      37.836  33.140  19.789  1.00  0.00     0.016 A 
ATOM     14  Br  UNL     1      36.046  35.044  20.979  1.00  0.00    -0.051 Br
ENDBRANCH   1   8
TORSDOF 2
BEGIN_RES LYS A 135
REMARK  4 active torsions:
REMARK  status: ('A' for Active; 'I' for Inactive)
REMARK    1  A    between atoms: CA   and  CB  
REMARK    2  A    between atoms: CB   and  CG  
REMARK    3  A    between atoms: CG   and  CD  
REMARK    4  A    between atoms: CD   and  CE  
ROOT
ATOM      1  CA  LYS A 135      33.193  34.663   9.290  1.00 25.02     0.186 C 
ENDROOT
BRANCH   1   2
ATOM      2  CB  LYS A 135      32.060  35.360  10.034  1.00 26.63     0.034 C 
BRANCH   2   3
ATOM      3  CG  LYS A 135      30.850  35.626   9.176  1.00 29.45     0.005 C 
BRANCH   3   4
ATOM      4  CD  LYS A 135      30.241  34.321   8.688  1.00 32.00     0.041 C 
BRANCH   4   5
ATOM      5  CE  LYS A 135      28.784  34.519   8.316  1.00 34.25     0.338 C 
ATOM      6  NZ  LYS A 135      28.653  35.328   7.072  1.00 35.99     0.618 N 
ENDBRANCH   4   5
ENDBRANCH   3   4
ENDBRANCH   2   3
ENDBRANCH   1   2
END_RES LYS A 135
BEGIN_RES TYR A 136
REMARK  2 active torsions:
REMARK  status: ('A' for Active; 'I' for Inactive)
REMARK    5  A    between atoms: CA   and  CB  
REMARK    6  A    between atoms: CB   and  CG  
ROOT
ATOM      7  CA  TYR A 136      36.583  36.399   8.994  1.00 26.14     0.191 C 
ENDROOT
BRANCH   7   8
ATOM      8  CB  TYR A 136      37.367  36.835  10.240  1.00 28.16     0.060 C 
BRANCH   8   9
ATOM      9  CG  TYR A 136      37.265  38.318  10.500  1.00 31.88    -0.020 A 
ATOM     10  CD2 TYR A 136      36.347  39.112   9.809  1.00 32.67    -0.002 A 
ATOM     11  CE2 TYR A 136      36.262  40.489  10.057  1.00 33.89     0.027 A 
ATOM     12  CZ  TYR A 136      37.103  41.076  11.005  1.00 34.34     0.131 A 
ATOM     13  OH  TYR A 136      37.030  42.437  11.272  1.00 35.14    -0.190 OA
ATOM     14  CE1 TYR A 136      38.021  40.303  11.700  1.00 35.01     0.027 A 
ATOM     15  CD1 TYR A 136      38.101  38.934  11.440  1.00 33.57    -0.002 A 
ENDBRANCH   8   9
ENDBRANCH   7   8
END_RES TYR A 136
BEGIN_RES ASN A 133
REMARK  2 active torsions:
REMARK  status: ('A' for Active; 'I' for Inactive)
REMARK    7  A    between atoms: CA   and  CB  
REMARK    8  A    between atoms: CB   and  CG  
ROOT
ATOM     16  CA  ASN A 133      31.225  30.257  11.749  1.00 18.15     0.196 C 
ENDROOT
BRANCH  16  17
ATOM     17  CB  ASN A 133      30.092  31.240  11.460  1.00 18.27     0.126 C 
BRANCH  17  18
ATOM     18  CG  ASN A 133      28.751  30.582  11.351  1.00 18.94     0.276 C 
ATOM     19  OD1 ASN A 133      28.577  29.605  10.620  1.00 18.09    -0.269 OA
ATOM     20  ND2 ASN A 133      27.778  31.119  12.086  1.00 18.93    -0.107 N 
ENDBRANCH  17  18
ENDBRANCH  16  17
END_RES ASN A 133
