REMARK VINA RESULT:    -4.942      3.465      6.909
REMARK INTER + INTRA:          -8.430
REMARK INTER:                  -6.097
REMARK INTRA:                  -2.333
REMARK UNBOUND:                -2.333
REMARK SMILES Cc1cn(-c2ccc(S(=O)(=O)Nc3nccs3)cc2)nn1
REMARK SMILES IDX 9 1 10 2 11 3 8 4 5 5 6 6 19 7 7 8 18 9 4 10 1 11 2 12 3 13
REMARK SMILES IDX 21 14 20 15 12 16 13 18 14 19 17 20 15 21 16 22
REMARK H PARENT 12 17
REMARK Flexibility Score: inf
ROOT
ATOM      1  S   UNL     1      29.671  31.075  18.730  1.00  0.00     0.263 S 
ATOM      2  O   UNL     1      30.729  30.435  19.567  1.00  0.00    -0.201 OA
ATOM      3  O   UNL     1      28.886  32.040  19.596  1.00  0.00    -0.201 OA
ENDROOT
BRANCH   1   4
ATOM      4  C   UNL     1      30.478  32.008  17.488  1.00  0.00     0.088 A 
ATOM      5  C   UNL     1      31.761  33.552  15.631  1.00  0.00     0.066 A 
ATOM      6  C   UNL     1      31.650  33.989  16.923  1.00  0.00     0.030 A 
ATOM      7  C   UNL     1      31.232  32.346  15.270  1.00  0.00     0.030 A 
ATOM      8  C   UNL     1      31.014  33.235  17.869  1.00  0.00     0.024 A 
ATOM      9  C   UNL     1      30.590  31.576  16.201  1.00  0.00     0.024 A 
BRANCH   5  10
ATOM     10  N   UNL     1      32.451  34.416  14.703  1.00  0.00    -0.220 N 
ATOM     11  C   UNL     1      32.715  36.901  12.015  1.00  0.00     0.070 C 
ATOM     12  C   UNL     1      32.863  35.899  13.101  1.00  0.00     0.080 A 
ATOM     13  C   UNL     1      31.879  35.238  13.806  1.00  0.00     0.140 A 
ATOM     14  N   UNL     1      34.017  35.439  13.614  1.00  0.00    -0.135 NA
ATOM     15  N   UNL     1      33.749  34.560  14.562  1.00  0.00    -0.062 NA
ENDBRANCH   5  10
ENDBRANCH   1   4
BRANCH   1  16
ATOM     16  N   UNL     1      28.618  29.918  18.057  1.00  0.00    -0.255 N 
ATOM     17  H   UNL     1      28.456  29.950  17.013  1.00  0.00     0.182 HD
BRANCH  16  18
ATOM     18  C   UNL     1      27.977  28.941  18.889  1.00  0.00     0.196 A 
ATOM     19  N   UNL     1      28.201  28.214  19.726  1.00  0.00    -0.228 NA
ATOM     20  S   UNL     1      26.124  28.648  18.618  1.00  0.00    -0.105 S 
ATOM     21  C   UNL     1      27.416  27.376  20.364  1.00  0.00     0.125 A 
ATOM     22  C   UNL     1      26.119  27.367  19.967  1.00  0.00     0.089 A 
ENDBRANCH  16  18
ENDBRANCH   1  16
TORSDOF 4
BEGIN_RES LYS A 135
REMARK  4 active torsions:
REMARK  status: ('A' for Active; 'I' for Inactive)
REMARK    1  A    between atoms: CA   and  CB  
REMARK    2  A    between atoms: CB   and  CG  
REMARK    3  A    between atoms: CG   and  CD  
REMARK    4  A    between atoms: CD   and  CE  
ROOT
ATOM      1  CA  LYS A 135      33.193  34.663   9.290  1.00 25.02     0.186 C 
ENDROOT
BRANCH   1   2
ATOM      2  CB  LYS A 135      32.060  35.360  10.034  1.00 26.63     0.034 C 
BRANCH   2   3
ATOM      3  CG  LYS A 135      30.693  35.042   9.485  1.00 29.45     0.005 C 
BRANCH   3   4
ATOM      4  CD  LYS A 135      29.792  36.266   9.545  1.00 32.00     0.041 C 
BRANCH   4   5
ATOM      5  CE  LYS A 135      28.338  35.865   9.390  1.00 34.25     0.338 C 
ATOM      6  NZ  LYS A 135      27.635  35.879  10.703  1.00 35.99     0.618 N 
ENDBRANCH   4   5
ENDBRANCH   3   4
ENDBRANCH   2   3
ENDBRANCH   1   2
END_RES LYS A 135
BEGIN_RES TYR A 136
REMARK  2 active torsions:
REMARK  status: ('A' for Active; 'I' for Inactive)
REMARK    5  A    between atoms: CA   and  CB  
REMARK    6  A    between atoms: CB   and  CG  
ROOT
ATOM      7  CA  TYR A 136      36.583  36.399   8.994  1.00 26.14     0.191 C 
ENDROOT
BRANCH   7   8
ATOM      8  CB  TYR A 136      37.367  36.835  10.240  1.00 28.16     0.060 C 
BRANCH   8   9
ATOM      9  CG  TYR A 136      37.126  38.280  10.601  1.00 31.88    -0.020 A 
ATOM     10  CD2 TYR A 136      35.840  38.824  10.587  1.00 32.67    -0.002 A 
ATOM     11  CE2 TYR A 136      35.627  40.168  10.923  1.00 33.89     0.027 A 
ATOM     12  CZ  TYR A 136      36.711  40.976  11.274  1.00 34.34     0.131 A 
ATOM     13  OH  TYR A 136      36.523  42.307  11.617  1.00 35.14    -0.190 OA
ATOM     14  CE1 TYR A 136      37.996  40.452  11.292  1.00 35.01     0.027 A 
ATOM     15  CD1 TYR A 136      38.196  39.114  10.950  1.00 33.57    -0.002 A 
ENDBRANCH   8   9
ENDBRANCH   7   8
END_RES TYR A 136
BEGIN_RES ASN A 133
REMARK  2 active torsions:
REMARK  status: ('A' for Active; 'I' for Inactive)
REMARK    7  A    between atoms: CA   and  CB  
REMARK    8  A    between atoms: CB   and  CG  
ROOT
ATOM     16  CA  ASN A 133      31.225  30.257  11.749  1.00 18.15     0.196 C 
ENDROOT
BRANCH  16  17
ATOM     17  CB  ASN A 133      30.092  31.240  11.460  1.00 18.27     0.126 C 
BRANCH  17  18
ATOM     18  CG  ASN A 133      28.750  30.583  11.358  1.00 18.94     0.276 C 
ATOM     19  OD1 ASN A 133      28.573  29.603  10.633  1.00 18.09    -0.269 OA
ATOM     20  ND2 ASN A 133      27.779  31.124  12.093  1.00 18.93    -0.107 N 
ENDBRANCH  17  18
ENDBRANCH  16  17
END_RES ASN A 133
