REMARK VINA RESULT:    -4.043      4.029      6.798
REMARK INTER + INTRA:          -8.134
REMARK INTER:                  -4.811
REMARK INTRA:                  -3.322
REMARK UNBOUND:                -3.145
REMARK SMILES Cc1cn(COCc2ccccc2)nn1
REMARK SMILES IDX 6 1 5 2 4 3 1 4 2 5 3 6 15 7 14 8 7 9 8 10 9 11 13 12 10 13
REMARK SMILES IDX 12 14 11 15
REMARK H PARENT
REMARK Flexibility Score: inf
ROOT
ATOM      1  O   UNL     1      25.974  29.851  15.797  1.00  0.00    -0.355 OA
ENDROOT
BRANCH   1   2
ATOM      2  C   UNL     1      26.841  29.309  16.743  1.00  0.00     0.307 C 
BRANCH   2   3
ATOM      3  N   UNL     1      28.040  30.066  16.911  1.00  0.00    -0.226 N 
ATOM      4  C   UNL     1      30.937  31.950  15.805  1.00  0.00     0.070 C 
ATOM      5  C   UNL     1      29.855  31.235  16.501  1.00  0.00     0.080 A 
ATOM      6  C   UNL     1      28.795  30.581  15.929  1.00  0.00     0.137 A 
ATOM      7  N   UNL     1      29.714  31.098  17.829  1.00  0.00    -0.136 NA
ATOM      8  N   UNL     1      28.625  30.397  18.046  1.00  0.00    -0.065 NA
ENDBRANCH   2   3
ENDBRANCH   1   2
BRANCH   1   9
ATOM      9  C   UNL     1      24.689  29.450  16.132  1.00  0.00     0.198 C 
BRANCH   9  10
ATOM     10  C   UNL     1      23.810  29.388  14.924  1.00  0.00    -0.022 A 
ATOM     11  C   UNL     1      22.665  28.642  14.870  1.00  0.00     0.006 A 
ATOM     12  C   UNL     1      24.198  30.126  13.832  1.00  0.00     0.006 A 
ATOM     13  C   UNL     1      21.919  28.647  13.710  1.00  0.00     0.000 A 
ATOM     14  C   UNL     1      23.446  30.131  12.663  1.00  0.00     0.000 A 
ATOM     15  C   UNL     1      22.286  29.382  12.596  1.00  0.00     0.000 A 
ENDBRANCH   9  10
ENDBRANCH   1   9
TORSDOF 4
BEGIN_RES LYS A 135
REMARK  4 active torsions:
REMARK  status: ('A' for Active; 'I' for Inactive)
REMARK    1  A    between atoms: CA   and  CB  
REMARK    2  A    between atoms: CB   and  CG  
REMARK    3  A    between atoms: CG   and  CD  
REMARK    4  A    between atoms: CD   and  CE  
ROOT
ATOM      1  CA  LYS A 135      33.193  34.663   9.290  1.00 25.02     0.186 C 
ENDROOT
BRANCH   1   2
ATOM      2  CB  LYS A 135      32.060  35.360  10.034  1.00 26.63     0.034 C 
BRANCH   2   3
ATOM      3  CG  LYS A 135      30.802  35.504   9.217  1.00 29.45     0.005 C 
BRANCH   3   4
ATOM      4  CD  LYS A 135      30.125  34.155   9.032  1.00 32.00     0.041 C 
BRANCH   4   5
ATOM      5  CE  LYS A 135      28.667  34.337   8.657  1.00 34.25     0.338 C 
ATOM      6  NZ  LYS A 135      27.772  33.680   9.649  1.00 35.99     0.618 N 
ENDBRANCH   4   5
ENDBRANCH   3   4
ENDBRANCH   2   3
ENDBRANCH   1   2
END_RES LYS A 135
BEGIN_RES TYR A 136
REMARK  2 active torsions:
REMARK  status: ('A' for Active; 'I' for Inactive)
REMARK    5  A    between atoms: CA   and  CB  
REMARK    6  A    between atoms: CB   and  CG  
ROOT
ATOM      7  CA  TYR A 136      36.583  36.399   8.994  1.00 26.14     0.191 C 
ENDROOT
BRANCH   7   8
ATOM      8  CB  TYR A 136      37.367  36.835  10.240  1.00 28.16     0.060 C 
BRANCH   8   9
ATOM      9  CG  TYR A 136      37.218  38.308  10.533  1.00 31.88    -0.020 A 
ATOM     10  CD2 TYR A 136      37.877  38.900  11.613  1.00 32.67    -0.002 A 
ATOM     11  CE2 TYR A 136      37.731  40.269  11.878  1.00 33.89     0.027 A 
ATOM     12  CZ  TYR A 136      36.917  41.051  11.055  1.00 34.34     0.131 A 
ATOM     13  OH  TYR A 136      36.763  42.410  11.294  1.00 35.14    -0.190 OA
ATOM     14  CE1 TYR A 136      36.253  40.479   9.979  1.00 35.01     0.027 A 
ATOM     15  CD1 TYR A 136      36.402  39.114   9.729  1.00 33.57    -0.002 A 
ENDBRANCH   8   9
ENDBRANCH   7   8
END_RES TYR A 136
BEGIN_RES ASN A 133
REMARK  2 active torsions:
REMARK  status: ('A' for Active; 'I' for Inactive)
REMARK    7  A    between atoms: CA   and  CB  
REMARK    8  A    between atoms: CB   and  CG  
ROOT
ATOM     16  CA  ASN A 133      31.225  30.257  11.749  1.00 18.15     0.196 C 
ENDROOT
BRANCH  16  17
ATOM     17  CB  ASN A 133      30.092  31.240  11.460  1.00 18.27     0.126 C 
BRANCH  17  18
ATOM     18  CG  ASN A 133      28.746  30.588  11.391  1.00 18.94     0.276 C 
ATOM     19  OD1 ASN A 133      28.543  29.619  10.657  1.00 18.09    -0.269 OA
ATOM     20  ND2 ASN A 133      27.800  31.120  12.163  1.00 18.93    -0.107 N 
ENDBRANCH  17  18
ENDBRANCH  16  17
END_RES ASN A 133
