REMARK VINA RESULT:    -5.091      0.000      0.000
REMARK INTER + INTRA:          -7.570
REMARK INTER:                  -4.582
REMARK INTRA:                  -2.988
REMARK UNBOUND:                -2.181
REMARK SMILES Cc1cn(-c2ccccc2)nn1
REMARK SMILES IDX 5 1 6 2 7 3 8 4 9 5 10 6 4 7 1 8 2 9 3 10 12 11 11 12
REMARK H PARENT
REMARK Flexibility Score: inf
ROOT
ATOM      1  C   UNL     1      32.015  33.925  15.518  1.00  0.00     0.066 A 
ATOM      2  C   UNL     1      31.908  34.381  16.818  1.00  0.00     0.028 A 
ATOM      3  C   UNL     1      31.271  33.656  17.796  1.00  0.00     0.002 A 
ATOM      4  C   UNL     1      30.706  32.428  17.517  1.00  0.00     0.000 A 
ATOM      5  C   UNL     1      30.813  31.971  16.220  1.00  0.00     0.002 A 
ATOM      6  C   UNL     1      31.453  32.699  15.236  1.00  0.00     0.028 A 
ENDROOT
BRANCH   1   7
ATOM      7  N   UNL     1      32.675  34.670  14.493  1.00  0.00    -0.220 N 
ATOM      8  C   UNL     1      32.855  37.201  11.840  1.00  0.00     0.070 C 
ATOM      9  C   UNL     1      33.082  36.126  12.846  1.00  0.00     0.080 A 
ATOM     10  C   UNL     1      32.128  35.633  13.731  1.00  0.00     0.140 A 
ATOM     11  N   UNL     1      34.189  35.423  13.118  1.00  0.00    -0.135 NA
ATOM     12  N   UNL     1      33.933  34.568  14.093  1.00  0.00    -0.062 NA
ENDBRANCH   1   7
TORSDOF 1
BEGIN_RES LYS A 135
REMARK  4 active torsions:
REMARK  status: ('A' for Active; 'I' for Inactive)
REMARK    1  A    between atoms: CA   and  CB  
REMARK    2  A    between atoms: CB   and  CG  
REMARK    3  A    between atoms: CG   and  CD  
REMARK    4  A    between atoms: CD   and  CE  
ROOT
ATOM      1  CA  LYS A 135      33.193  34.663   9.290  1.00 25.02     0.186 C 
ENDROOT
BRANCH   1   2
ATOM      2  CB  LYS A 135      32.060  35.360  10.034  1.00 26.63     0.034 C 
BRANCH   2   3
ATOM      3  CG  LYS A 135      30.701  34.778   9.744  1.00 29.45     0.005 C 
BRANCH   3   4
ATOM      4  CD  LYS A 135      30.561  34.450   8.265  1.00 32.00     0.041 C 
BRANCH   4   5
ATOM      5  CE  LYS A 135      29.392  35.204   7.661  1.00 34.25     0.338 C 
ATOM      6  NZ  LYS A 135      28.095  34.682   8.173  1.00 35.99     0.618 N 
ENDBRANCH   4   5
ENDBRANCH   3   4
ENDBRANCH   2   3
ENDBRANCH   1   2
END_RES LYS A 135
BEGIN_RES TYR A 136
REMARK  2 active torsions:
REMARK  status: ('A' for Active; 'I' for Inactive)
REMARK    5  A    between atoms: CA   and  CB  
REMARK    6  A    between atoms: CB   and  CG  
ROOT
ATOM      7  CA  TYR A 136      36.583  36.399   8.994  1.00 26.14     0.191 C 
ENDROOT
BRANCH   7   8
ATOM      8  CB  TYR A 136      37.367  36.835  10.240  1.00 28.16     0.060 C 
BRANCH   8   9
ATOM      9  CG  TYR A 136      36.671  37.930  11.010  1.00 31.88    -0.020 A 
ATOM     10  CD2 TYR A 136      36.662  37.939  12.406  1.00 32.67    -0.002 A 
ATOM     11  CE2 TYR A 136      36.011  38.960  13.112  1.00 33.89     0.027 A 
ATOM     12  CZ  TYR A 136      35.362  39.981  12.414  1.00 34.34     0.131 A 
ATOM     13  OH  TYR A 136      34.717  41.006  13.092  1.00 35.14    -0.190 OA
ATOM     14  CE1 TYR A 136      35.359  39.987  11.026  1.00 35.01     0.027 A 
ATOM     15  CD1 TYR A 136      36.006  38.962  10.335  1.00 33.57    -0.002 A 
ENDBRANCH   8   9
ENDBRANCH   7   8
END_RES TYR A 136
BEGIN_RES ASN A 133
REMARK  2 active torsions:
REMARK  status: ('A' for Active; 'I' for Inactive)
REMARK    7  A    between atoms: CA   and  CB  
REMARK    8  A    between atoms: CB   and  CG  
ROOT
ATOM     16  CA  ASN A 133      31.225  30.257  11.749  1.00 18.15     0.196 C 
ENDROOT
BRANCH  16  17
ATOM     17  CB  ASN A 133      30.092  31.240  11.460  1.00 18.27     0.126 C 
BRANCH  17  18
ATOM     18  CG  ASN A 133      28.750  30.584  11.363  1.00 18.94     0.276 C 
ATOM     19  OD1 ASN A 133      28.570  29.602  10.641  1.00 18.09    -0.269 OA
ATOM     20  ND2 ASN A 133      27.781  31.128  12.099  1.00 18.93    -0.107 N 
ENDBRANCH  17  18
ENDBRANCH  16  17
END_RES ASN A 133
