REMARK VINA RESULT:    -3.961      5.074      8.732
REMARK INTER + INTRA:          -9.781
REMARK INTER:                  -6.845
REMARK INTRA:                  -2.936
REMARK UNBOUND:                -4.315
REMARK SMILES CCOCCc1c(-c2ccccc2)nc(N)nc1-n1cc(C)nn1
REMARK SMILES IDX 5 1 6 2 18 3 17 4 15 5 7 6 14 7 19 8 22 9 21 10 20 11 23 12
REMARK SMILES IDX 24 13 16 14 8 17 9 18 13 19 10 20 12 21 11 22 4 23 3 24 2 25
REMARK SMILES IDX 1 26
REMARK H PARENT 16 15 16 16
REMARK Flexibility Score: inf
ROOT
ATOM      1  C   UNL     1      25.590  38.306   8.917  1.00  0.00     0.070 C 
ENDROOT
BRANCH   1   2
ATOM      2  C   UNL     1      24.397  37.470   8.884  1.00  0.00     0.026 A 
ATOM      3  C   UNL     1      23.176  38.051   8.547  1.00  0.00     0.164 A 
ATOM      4  N   UNL     1      22.095  37.225   8.486  1.00  0.00    -0.193 NA
ATOM      5  C   UNL     1      22.125  35.921   8.722  1.00  0.00     0.222 A 
ATOM      6  C   UNL     1      24.441  36.127   9.131  1.00  0.00     0.081 A 
ATOM      7  N   UNL     1      23.302  35.360   9.047  1.00  0.00    -0.213 NA
BRANCH   3   8
ATOM      8  N   UNL     1      23.047  39.438   8.282  1.00  0.00    -0.202 N 
ATOM      9  C   UNL     1      22.477  42.997   8.976  1.00  0.00     0.070 C 
ATOM     10  C   UNL     1      22.743  41.643   8.426  1.00  0.00     0.080 A 
ATOM     11  C   UNL     1      22.776  40.433   9.134  1.00  0.00     0.142 A 
ATOM     12  N   UNL     1      23.003  41.291   7.152  1.00  0.00    -0.135 NA
ATOM     13  N   UNL     1      23.180  39.979   7.090  1.00  0.00    -0.061 NA
ENDBRANCH   3   8
BRANCH   5  14
ATOM     14  N   UNL     1      20.930  35.115   8.634  1.00  0.00    -0.368 N 
ATOM     15  H   UNL     1      20.237  35.175   9.392  1.00  0.00     0.159 HD
ATOM     16  H   UNL     1      20.747  34.481   7.836  1.00  0.00     0.159 HD
ENDBRANCH   5  14
BRANCH   6  17
ATOM     17  C   UNL     1      25.639  35.377   9.477  1.00  0.00     0.001 A 
ATOM     18  C   UNL     1      26.399  34.640   8.632  1.00  0.00     0.010 A 
ATOM     19  C   UNL     1      25.999  35.409  10.826  1.00  0.00     0.010 A 
ATOM     20  C   UNL     1      27.515  33.922   9.076  1.00  0.00     0.001 A 
ATOM     21  C   UNL     1      27.096  34.704  11.264  1.00  0.00     0.001 A 
ATOM     22  C   UNL     1      27.870  33.953  10.406  1.00  0.00     0.000 A 
ENDBRANCH   6  17
ENDBRANCH   1   2
BRANCH   1  23
ATOM     23  C   UNL     1      26.249  38.452   7.554  1.00  0.00     0.165 C 
BRANCH  23  24
ATOM     24  O   UNL     1      27.402  37.697   7.460  1.00  0.00    -0.381 OA
BRANCH  24  25
ATOM     25  C   UNL     1      27.537  37.183   6.173  1.00  0.00     0.156 C 
ATOM     26  C   UNL     1      28.570  36.064   6.143  1.00  0.00     0.035 C 
ENDBRANCH  24  25
ENDBRANCH  23  24
ENDBRANCH   1  23
TORSDOF 7
BEGIN_RES LYS A 135
REMARK  4 active torsions:
REMARK  status: ('A' for Active; 'I' for Inactive)
REMARK    1  A    between atoms: CA   and  CB  
REMARK    2  A    between atoms: CB   and  CG  
REMARK    3  A    between atoms: CG   and  CD  
REMARK    4  A    between atoms: CD   and  CE  
ROOT
ATOM      1  CA  LYS A 135      33.193  34.663   9.290  1.00 25.02     0.186 C 
ENDROOT
BRANCH   1   2
ATOM      2  CB  LYS A 135      32.060  35.360  10.034  1.00 26.63     0.034 C 
BRANCH   2   3
ATOM      3  CG  LYS A 135      30.803  35.509   9.215  1.00 29.45     0.005 C 
BRANCH   3   4
ATOM      4  CD  LYS A 135      30.147  36.855   9.479  1.00 32.00     0.041 C 
BRANCH   4   5
ATOM      5  CE  LYS A 135      30.802  37.544  10.661  1.00 34.25     0.338 C 
ATOM      6  NZ  LYS A 135      30.964  39.003  10.409  1.00 35.99     0.618 N 
ENDBRANCH   4   5
ENDBRANCH   3   4
ENDBRANCH   2   3
ENDBRANCH   1   2
END_RES LYS A 135
BEGIN_RES TYR A 136
REMARK  2 active torsions:
REMARK  status: ('A' for Active; 'I' for Inactive)
REMARK    5  A    between atoms: CA   and  CB  
REMARK    6  A    between atoms: CB   and  CG  
ROOT
ATOM      7  CA  TYR A 136      36.583  36.399   8.994  1.00 26.14     0.191 C 
ENDROOT
BRANCH   7   8
ATOM      8  CB  TYR A 136      37.367  36.835  10.240  1.00 28.16     0.060 C 
BRANCH   8   9
ATOM      9  CG  TYR A 136      37.205  38.304  10.543  1.00 31.88    -0.020 A 
ATOM     10  CD2 TYR A 136      36.227  38.756  11.431  1.00 32.67    -0.002 A 
ATOM     11  CE2 TYR A 136      36.084  40.124  11.704  1.00 33.89     0.027 A 
ATOM     12  CZ  TYR A 136      36.927  41.047  11.082  1.00 34.34     0.131 A 
ATOM     13  OH  TYR A 136      36.808  42.405  11.342  1.00 35.14    -0.190 OA
ATOM     14  CE1 TYR A 136      37.903  40.616  10.195  1.00 35.01     0.027 A 
ATOM     15  CD1 TYR A 136      38.032  39.252   9.927  1.00 33.57    -0.002 A 
ENDBRANCH   8   9
ENDBRANCH   7   8
END_RES TYR A 136
BEGIN_RES ASN A 133
REMARK  2 active torsions:
REMARK  status: ('A' for Active; 'I' for Inactive)
REMARK    7  A    between atoms: CA   and  CB  
REMARK    8  A    between atoms: CB   and  CG  
ROOT
ATOM     16  CA  ASN A 133      31.225  30.257  11.749  1.00 18.15     0.196 C 
ENDROOT
BRANCH  16  17
ATOM     17  CB  ASN A 133      30.092  31.240  11.460  1.00 18.27     0.126 C 
BRANCH  17  18
ATOM     18  CG  ASN A 133      28.749  30.585  11.369  1.00 18.94     0.276 C 
ATOM     19  OD1 ASN A 133      28.533  29.682  10.558  1.00 18.09    -0.269 OA
ATOM     20  ND2 ASN A 133      27.821  31.039  12.210  1.00 18.93    -0.107 N 
ENDBRANCH  17  18
ENDBRANCH  16  17
END_RES ASN A 133
