REMARK VINA RESULT:    -6.899      0.000      0.000
REMARK INTER + INTRA:          -9.913
REMARK INTER:                  -6.447
REMARK INTRA:                  -3.465
REMARK UNBOUND:                -1.804
REMARK SMILES Cc1cn(C(C)(C)C(=O)c2c[nH]c3ccccc23)nn1
REMARK SMILES IDX 5 1 6 2 7 3 4 4 1 5 2 6 3 7 20 8 19 9 8 10 9 11 10 12 11 13
REMARK SMILES IDX 18 14 12 15 13 16 17 17 14 19 16 20 15 21
REMARK H PARENT 12 18
REMARK Flexibility Score: inf
ROOT
ATOM      1  C   UNL     1      38.993  35.105  15.065  1.00  0.00     0.122 C 
ATOM      2  C   UNL     1      39.520  36.131  16.079  1.00  0.00     0.046 C 
ATOM      3  C   UNL     1      38.415  33.913  15.765  1.00  0.00     0.046 C 
ENDROOT
BRANCH   1   4
ATOM      4  N   UNL     1      40.207  34.650  14.367  1.00  0.00    -0.239 N 
ATOM      5  C   UNL     1      42.190  33.398  11.542  1.00  0.00     0.070 C 
ATOM      6  C   UNL     1      41.638  33.902  12.844  1.00  0.00     0.080 A 
ATOM      7  C   UNL     1      40.321  34.242  13.091  1.00  0.00     0.135 A 
ATOM      8  N   UNL     1      42.284  34.121  13.996  1.00  0.00    -0.136 NA
ATOM      9  N   UNL     1      41.416  34.563  14.882  1.00  0.00    -0.066 NA
ENDBRANCH   1   4
BRANCH   1  10
ATOM     10  C   UNL     1      38.084  35.800  14.161  1.00  0.00     0.192 C 
ATOM     11  O   UNL     1      38.356  36.909  13.598  1.00  0.00    -0.291 OA
BRANCH  10  12
ATOM     12  C   UNL     1      36.780  35.224  13.865  1.00  0.00     0.045 A 
ATOM     13  C   UNL     1      36.499  34.292  12.857  1.00  0.00     0.095 A 
ATOM     14  C   UNL     1      35.570  35.478  14.471  1.00  0.00     0.010 A 
ATOM     15  N   UNL     1      35.191  34.008  12.864  1.00  0.00    -0.360 N 
ATOM     16  C   UNL     1      34.590  34.722  13.847  1.00  0.00     0.046 A 
ATOM     17  C   UNL     1      35.180  36.273  15.507  1.00  0.00     0.011 A 
ATOM     18  H   UNL     1      34.670  33.342  12.225  1.00  0.00     0.166 HD
ATOM     19  C   UNL     1      33.271  34.759  14.236  1.00  0.00     0.027 A 
ATOM     20  C   UNL     1      33.853  36.329  15.923  1.00  0.00     0.001 A 
ATOM     21  C   UNL     1      32.918  35.567  15.277  1.00  0.00     0.002 A 
ENDBRANCH  10  12
ENDBRANCH   1  10
TORSDOF 3
BEGIN_RES LYS A 135
REMARK  4 active torsions:
REMARK  status: ('A' for Active; 'I' for Inactive)
REMARK    1  A    between atoms: CA   and  CB  
REMARK    2  A    between atoms: CB   and  CG  
REMARK    3  A    between atoms: CG   and  CD  
REMARK    4  A    between atoms: CD   and  CE  
ROOT
ATOM      1  CA  LYS A 135      33.193  34.663   9.290  1.00 25.02     0.186 C 
ENDROOT
BRANCH   1   2
ATOM      2  CB  LYS A 135      32.060  35.360  10.034  1.00 26.63     0.034 C 
BRANCH   2   3
ATOM      3  CG  LYS A 135      30.822  35.558   9.198  1.00 29.45     0.005 C 
BRANCH   3   4
ATOM      4  CD  LYS A 135      30.178  34.220   8.867  1.00 32.00     0.041 C 
BRANCH   4   5
ATOM      5  CE  LYS A 135      28.706  34.401   8.551  1.00 34.25     0.338 C 
ATOM      6  NZ  LYS A 135      27.853  33.722   9.565  1.00 35.99     0.618 N 
ENDBRANCH   4   5
ENDBRANCH   3   4
ENDBRANCH   2   3
ENDBRANCH   1   2
END_RES LYS A 135
BEGIN_RES TYR A 136
REMARK  2 active torsions:
REMARK  status: ('A' for Active; 'I' for Inactive)
REMARK    5  A    between atoms: CA   and  CB  
REMARK    6  A    between atoms: CB   and  CG  
ROOT
ATOM      7  CA  TYR A 136      36.583  36.399   8.994  1.00 26.14     0.191 C 
ENDROOT
BRANCH   7   8
ATOM      8  CB  TYR A 136      37.367  36.835  10.240  1.00 28.16     0.060 C 
BRANCH   8   9
ATOM      9  CG  TYR A 136      36.763  38.044  10.912  1.00 31.88    -0.020 A 
ATOM     10  CD2 TYR A 136      37.349  39.306  10.790  1.00 32.67    -0.002 A 
ATOM     11  CE2 TYR A 136      36.781  40.423  11.419  1.00 33.89     0.027 A 
ATOM     12  CZ  TYR A 136      35.617  40.274  12.178  1.00 34.34     0.131 A 
ATOM     13  OH  TYR A 136      35.034  41.367  12.804  1.00 35.14    -0.190 OA
ATOM     14  CE1 TYR A 136      35.023  39.027  12.310  1.00 35.01     0.027 A 
ATOM     15  CD1 TYR A 136      35.601  37.922  11.684  1.00 33.57    -0.002 A 
ENDBRANCH   8   9
ENDBRANCH   7   8
END_RES TYR A 136
BEGIN_RES ASN A 133
REMARK  2 active torsions:
REMARK  status: ('A' for Active; 'I' for Inactive)
REMARK    7  A    between atoms: CA   and  CB  
REMARK    8  A    between atoms: CB   and  CG  
ROOT
ATOM     16  CA  ASN A 133      31.225  30.257  11.749  1.00 18.15     0.196 C 
ENDROOT
BRANCH  16  17
ATOM     17  CB  ASN A 133      30.092  31.240  11.460  1.00 18.27     0.126 C 
BRANCH  17  18
ATOM     18  CG  ASN A 133      28.751  30.582  11.353  1.00 18.94     0.276 C 
ATOM     19  OD1 ASN A 133      28.577  29.603  10.625  1.00 18.09    -0.269 OA
ATOM     20  ND2 ASN A 133      27.777  31.122  12.085  1.00 18.93    -0.107 N 
ENDBRANCH  17  18
ENDBRANCH  16  17
END_RES ASN A 133
