REMARK VINA RESULT:    -3.852      3.323      6.154
REMARK INTER + INTRA:          -7.859
REMARK INTER:                  -4.355
REMARK INTRA:                  -3.504
REMARK UNBOUND:                -3.332
REMARK SMILES Cc1cn(CC(=O)Nc2ncccn2)nn1
REMARK SMILES IDX 6 1 7 2 8 3 5 5 4 6 1 7 2 8 3 9 16 10 15 11 9 12 10 13 14 14
REMARK SMILES IDX 11 15 13 16 12 17
REMARK H PARENT 8 4
REMARK Flexibility Score: inf
ROOT
ATOM      1  C   UNL     1      26.944  30.166  16.255  1.00  0.00     0.248 C 
ATOM      2  O   UNL     1      27.876  29.328  16.170  1.00  0.00    -0.272 OA
ATOM      3  N   UNL     1      27.323  31.550  16.273  1.00  0.00    -0.293 N 
ATOM      4  H   UNL     1      26.568  32.261  16.343  1.00  0.00     0.173 HD
ENDROOT
BRANCH   1   5
ATOM      5  C   UNL     1      25.524  29.828  16.335  1.00  0.00     0.246 C 
BRANCH   5   6
ATOM      6  N   UNL     1      24.848  30.057  15.072  1.00  0.00    -0.243 N 
ATOM      7  C   UNL     1      22.349  29.426  12.449  1.00  0.00     0.070 C 
ATOM      8  C   UNL     1      23.449  29.887  13.350  1.00  0.00     0.080 A 
ATOM      9  C   UNL     1      23.810  29.364  14.581  1.00  0.00     0.134 A 
ATOM     10  N   UNL     1      24.311  30.907  13.142  1.00  0.00    -0.136 NA
ATOM     11  N   UNL     1      25.121  30.984  14.168  1.00  0.00    -0.067 NA
ENDBRANCH   5   6
ENDBRANCH   1   5
BRANCH   3  12
ATOM     12  C   UNL     1      28.670  31.964  16.200  1.00  0.00     0.229 A 
ATOM     13  N   UNL     1      29.452  32.028  17.286  1.00  0.00    -0.221 NA
ATOM     14  N   UNL     1      29.188  32.303  15.014  1.00  0.00    -0.221 NA
ATOM     15  C   UNL     1      30.741  32.421  17.238  1.00  0.00     0.117 A 
ATOM     16  C   UNL     1      30.467  32.708  14.868  1.00  0.00     0.117 A 
ATOM     17  C   UNL     1      31.253  32.768  15.989  1.00  0.00     0.040 A 
ENDBRANCH   3  12
TORSDOF 3
BEGIN_RES LYS A 135
REMARK  4 active torsions:
REMARK  status: ('A' for Active; 'I' for Inactive)
REMARK    1  A    between atoms: CA   and  CB  
REMARK    2  A    between atoms: CB   and  CG  
REMARK    3  A    between atoms: CG   and  CD  
REMARK    4  A    between atoms: CD   and  CE  
ROOT
ATOM      1  CA  LYS A 135      33.193  34.663   9.290  1.00 25.02     0.186 C 
ENDROOT
BRANCH   1   2
ATOM      2  CB  LYS A 135      32.060  35.360  10.034  1.00 26.63     0.034 C 
BRANCH   2   3
ATOM      3  CG  LYS A 135      30.833  35.585   9.189  1.00 29.45     0.005 C 
BRANCH   3   4
ATOM      4  CD  LYS A 135      30.287  34.262   8.673  1.00 32.00     0.041 C 
BRANCH   4   5
ATOM      5  CE  LYS A 135      28.883  34.025   9.195  1.00 34.25     0.338 C 
ATOM      6  NZ  LYS A 135      27.867  34.651   8.305  1.00 35.99     0.618 N 
ENDBRANCH   4   5
ENDBRANCH   3   4
ENDBRANCH   2   3
ENDBRANCH   1   2
END_RES LYS A 135
BEGIN_RES TYR A 136
REMARK  2 active torsions:
REMARK  status: ('A' for Active; 'I' for Inactive)
REMARK    5  A    between atoms: CA   and  CB  
REMARK    6  A    between atoms: CB   and  CG  
ROOT
ATOM      7  CA  TYR A 136      36.583  36.399   8.994  1.00 26.14     0.191 C 
ENDROOT
BRANCH   7   8
ATOM      8  CB  TYR A 136      37.367  36.835  10.240  1.00 28.16     0.060 C 
BRANCH   8   9
ATOM      9  CG  TYR A 136      36.937  38.188  10.752  1.00 31.88    -0.020 A 
ATOM     10  CD2 TYR A 136      36.974  38.490  12.115  1.00 32.67    -0.002 A 
ATOM     11  CE2 TYR A 136      36.571  39.749  12.581  1.00 33.89     0.027 A 
ATOM     12  CZ  TYR A 136      36.126  40.714  11.674  1.00 34.34     0.131 A 
ATOM     13  OH  TYR A 136      35.729  41.970  12.112  1.00 35.14    -0.190 OA
ATOM     14  CE1 TYR A 136      36.082  40.431  10.317  1.00 35.01     0.027 A 
ATOM     15  CD1 TYR A 136      36.480  39.171   9.865  1.00 33.57    -0.002 A 
ENDBRANCH   8   9
ENDBRANCH   7   8
END_RES TYR A 136
BEGIN_RES ASN A 133
REMARK  2 active torsions:
REMARK  status: ('A' for Active; 'I' for Inactive)
REMARK    7  A    between atoms: CA   and  CB  
REMARK    8  A    between atoms: CB   and  CG  
ROOT
ATOM     16  CA  ASN A 133      31.225  30.257  11.749  1.00 18.15     0.196 C 
ENDROOT
BRANCH  16  17
ATOM     17  CB  ASN A 133      30.092  31.240  11.460  1.00 18.27     0.126 C 
BRANCH  17  18
ATOM     18  CG  ASN A 133      28.759  30.577  11.303  1.00 18.94     0.276 C 
ATOM     19  OD1 ASN A 133      28.617  29.594  10.573  1.00 18.09    -0.269 OA
ATOM     20  ND2 ASN A 133      27.755  31.115  11.995  1.00 18.93    -0.107 N 
ENDBRANCH  17  18
ENDBRANCH  16  17
END_RES ASN A 133
