REMARK VINA RESULT:    -5.495      1.725      4.857
REMARK INTER + INTRA:          -8.867
REMARK INTER:                  -5.806
REMARK INTRA:                  -3.061
REMARK UNBOUND:                -3.051
REMARK SMILES Cc1cn(-c2c3ccccc3nc3ccccc23)nn1
REMARK SMILES IDX 5 1 6 2 7 3 8 4 9 5 10 6 11 7 12 8 13 9 14 10 15 11 16 12
REMARK SMILES IDX 17 13 18 14 4 15 1 16 2 17 3 18 20 19 19 20
REMARK H PARENT
REMARK Flexibility Score: inf
ROOT
ATOM      1  C   UNL     1      32.826  35.616  13.683  1.00  0.00     0.085 A 
ATOM      2  C   UNL     1      32.382  36.621  12.842  1.00  0.00     0.027 A 
ATOM      3  C   UNL     1      33.277  37.356  12.093  1.00  0.00     0.012 A 
ATOM      4  C   UNL     1      32.808  38.352  11.263  1.00  0.00     0.001 A 
ATOM      5  C   UNL     1      31.448  38.571  11.217  1.00  0.00     0.002 A 
ATOM      6  C   UNL     1      30.564  37.838  11.962  1.00  0.00     0.029 A 
ATOM      7  C   UNL     1      31.019  36.826  12.808  1.00  0.00     0.073 A 
ATOM      8  N   UNL     1      30.135  36.120  13.529  1.00  0.00    -0.248 NA
ATOM      9  C   UNL     1      30.567  35.126  14.362  1.00  0.00     0.073 A 
ATOM     10  C   UNL     1      29.663  34.394  15.108  1.00  0.00     0.029 A 
ATOM     11  C   UNL     1      30.161  33.406  15.929  1.00  0.00     0.002 A 
ATOM     12  C   UNL     1      31.516  33.145  16.012  1.00  0.00     0.001 A 
ATOM     13  C   UNL     1      32.388  33.876  15.271  1.00  0.00     0.012 A 
ATOM     14  C   UNL     1      31.915  34.868  14.444  1.00  0.00     0.027 A 
ENDROOT
BRANCH   1  15
ATOM     15  N   UNL     1      34.211  35.324  13.791  1.00  0.00    -0.219 N 
ATOM     16  C   UNL     1      37.605  35.645  15.148  1.00  0.00     0.070 C 
ATOM     17  C   UNL     1      36.325  35.320  14.421  1.00  0.00     0.080 A 
ATOM     18  C   UNL     1      35.086  35.878  14.638  1.00  0.00     0.140 A 
ATOM     19  N   UNL     1      36.177  34.429  13.433  1.00  0.00    -0.135 NA
ATOM     20  N   UNL     1      34.908  34.464  13.089  1.00  0.00    -0.062 NA
ENDBRANCH   1  15
TORSDOF 1
BEGIN_RES LYS A 135
REMARK  4 active torsions:
REMARK  status: ('A' for Active; 'I' for Inactive)
REMARK    1  A    between atoms: CA   and  CB  
REMARK    2  A    between atoms: CB   and  CG  
REMARK    3  A    between atoms: CG   and  CD  
REMARK    4  A    between atoms: CD   and  CE  
ROOT
ATOM      1  CA  LYS A 135      33.193  34.663   9.290  1.00 25.02     0.186 C 
ENDROOT
BRANCH   1   2
ATOM      2  CB  LYS A 135      32.060  35.360  10.034  1.00 26.63     0.034 C 
BRANCH   2   3
ATOM      3  CG  LYS A 135      30.802  35.506   9.217  1.00 29.45     0.005 C 
BRANCH   3   4
ATOM      4  CD  LYS A 135      30.146  34.152   8.996  1.00 32.00     0.041 C 
BRANCH   4   5
ATOM      5  CE  LYS A 135      28.684  34.322   8.630  1.00 34.25     0.338 C 
ATOM      6  NZ  LYS A 135      27.800  33.685   9.646  1.00 35.99     0.618 N 
ENDBRANCH   4   5
ENDBRANCH   3   4
ENDBRANCH   2   3
ENDBRANCH   1   2
END_RES LYS A 135
BEGIN_RES TYR A 136
REMARK  2 active torsions:
REMARK  status: ('A' for Active; 'I' for Inactive)
REMARK    5  A    between atoms: CA   and  CB  
REMARK    6  A    between atoms: CB   and  CG  
ROOT
ATOM      7  CA  TYR A 136      36.583  36.399   8.994  1.00 26.14     0.191 C 
ENDROOT
BRANCH   7   8
ATOM      8  CB  TYR A 136      37.367  36.835  10.240  1.00 28.16     0.060 C 
BRANCH   8   9
ATOM      9  CG  TYR A 136      36.834  38.111  10.844  1.00 31.88    -0.020 A 
ATOM     10  CD2 TYR A 136      36.817  38.304  12.227  1.00 32.67    -0.002 A 
ATOM     11  CE2 TYR A 136      36.318  39.492  12.778  1.00 33.89     0.027 A 
ATOM     12  CZ  TYR A 136      35.830  40.496  11.938  1.00 34.34     0.131 A 
ATOM     13  OH  TYR A 136      35.338  41.683  12.461  1.00 35.14    -0.190 OA
ATOM     14  CE1 TYR A 136      35.838  40.320  10.562  1.00 35.01     0.027 A 
ATOM     15  CD1 TYR A 136      36.332  39.130  10.025  1.00 33.57    -0.002 A 
ENDBRANCH   8   9
ENDBRANCH   7   8
END_RES TYR A 136
BEGIN_RES ASN A 133
REMARK  2 active torsions:
REMARK  status: ('A' for Active; 'I' for Inactive)
REMARK    7  A    between atoms: CA   and  CB  
REMARK    8  A    between atoms: CB   and  CG  
ROOT
ATOM     16  CA  ASN A 133      31.225  30.257  11.749  1.00 18.15     0.196 C 
ENDROOT
BRANCH  16  17
ATOM     17  CB  ASN A 133      30.092  31.240  11.460  1.00 18.27     0.126 C 
BRANCH  17  18
ATOM     18  CG  ASN A 133      28.750  30.583  11.361  1.00 18.94     0.276 C 
ATOM     19  OD1 ASN A 133      28.566  29.616  10.620  1.00 18.09    -0.269 OA
ATOM     20  ND2 ASN A 133      27.786  31.110  12.116  1.00 18.93    -0.107 N 
ENDBRANCH  17  18
ENDBRANCH  16  17
END_RES ASN A 133
