REMARK VINA RESULT:    -2.916      9.585     15.810
REMARK INTER + INTRA:          -6.862
REMARK INTER:                  -3.598
REMARK INTRA:                  -3.264
REMARK UNBOUND:                -3.264
REMARK SMILES Cc1cn(CCNS(C)(=O)=O)nn1
REMARK SMILES IDX 6 1 5 2 4 3 1 4 2 5 3 6 13 7 12 8 7 9 8 11 10 12 11 13 9 14
REMARK H PARENT 7 10
REMARK Flexibility Score: inf
ROOT
ATOM      1  C   UNL     1      40.283  35.391  14.530  1.00  0.00     0.122 C 
ENDROOT
BRANCH   1   2
ATOM      2  C   UNL     1      40.285  34.394  13.366  1.00  0.00     0.162 C 
BRANCH   2   3
ATOM      3  N   UNL     1      38.876  34.088  13.085  1.00  0.00    -0.251 N 
ATOM      4  C   UNL     1      35.273  34.689  13.218  1.00  0.00     0.070 C 
ATOM      5  C   UNL     1      36.668  34.204  13.011  1.00  0.00     0.080 A 
ATOM      6  C   UNL     1      37.814  34.817  13.464  1.00  0.00     0.134 A 
ATOM      7  N   UNL     1      37.084  33.105  12.361  1.00  0.00    -0.136 NA
ATOM      8  N   UNL     1      38.401  33.055  12.417  1.00  0.00    -0.067 NA
ENDBRANCH   2   3
ENDBRANCH   1   2
BRANCH   1   9
ATOM      9  N   UNL     1      40.946  34.787  15.649  1.00  0.00    -0.214 NA
ATOM     10  H   UNL     1      41.880  35.179  15.813  1.00  0.00     0.141 HD
BRANCH   9  11
ATOM     11  S   UNL     1      39.950  34.834  17.046  1.00  0.00     0.208 S 
ATOM     12  O   UNL     1      39.336  36.192  17.209  1.00  0.00    -0.213 OA
ATOM     13  O   UNL     1      40.817  34.543  18.259  1.00  0.00    -0.213 OA
ATOM     14  C   UNL     1      38.732  33.572  16.938  1.00  0.00     0.176 C 
ENDBRANCH   9  11
ENDBRANCH   1   9
TORSDOF 4
BEGIN_RES LYS A 135
REMARK  4 active torsions:
REMARK  status: ('A' for Active; 'I' for Inactive)
REMARK    1  A    between atoms: CA   and  CB  
REMARK    2  A    between atoms: CB   and  CG  
REMARK    3  A    between atoms: CG   and  CD  
REMARK    4  A    between atoms: CD   and  CE  
ROOT
ATOM      1  CA  LYS A 135      33.193  34.663   9.290  1.00 25.02     0.186 C 
ENDROOT
BRANCH   1   2
ATOM      2  CB  LYS A 135      32.060  35.360  10.034  1.00 26.63     0.034 C 
BRANCH   2   3
ATOM      3  CG  LYS A 135      30.854  35.636   9.173  1.00 29.45     0.005 C 
BRANCH   3   4
ATOM      4  CD  LYS A 135      30.311  34.345   8.581  1.00 32.00     0.041 C 
BRANCH   4   5
ATOM      5  CE  LYS A 135      28.847  34.501   8.216  1.00 34.25     0.338 C 
ATOM      6  NZ  LYS A 135      27.968  33.909   9.262  1.00 35.99     0.618 N 
ENDBRANCH   4   5
ENDBRANCH   3   4
ENDBRANCH   2   3
ENDBRANCH   1   2
END_RES LYS A 135
BEGIN_RES TYR A 136
REMARK  2 active torsions:
REMARK  status: ('A' for Active; 'I' for Inactive)
REMARK    5  A    between atoms: CA   and  CB  
REMARK    6  A    between atoms: CB   and  CG  
ROOT
ATOM      7  CA  TYR A 136      36.583  36.399   8.994  1.00 26.14     0.191 C 
ENDROOT
BRANCH   7   8
ATOM      8  CB  TYR A 136      37.367  36.835  10.240  1.00 28.16     0.060 C 
BRANCH   8   9
ATOM      9  CG  TYR A 136      36.803  38.083  10.873  1.00 31.88    -0.020 A 
ATOM     10  CD2 TYR A 136      36.316  39.134  10.092  1.00 32.67    -0.002 A 
ATOM     11  CE2 TYR A 136      35.796  40.290  10.690  1.00 33.89     0.027 A 
ATOM     12  CZ  TYR A 136      35.762  40.395  12.083  1.00 34.34     0.131 A 
ATOM     13  OH  TYR A 136      35.245  41.527  12.697  1.00 35.14    -0.190 OA
ATOM     14  CE1 TYR A 136      36.242  39.361  12.874  1.00 35.01     0.027 A 
ATOM     15  CD1 TYR A 136      36.764  38.218  12.267  1.00 33.57    -0.002 A 
ENDBRANCH   8   9
ENDBRANCH   7   8
END_RES TYR A 136
BEGIN_RES ASN A 133
REMARK  2 active torsions:
REMARK  status: ('A' for Active; 'I' for Inactive)
REMARK    7  A    between atoms: CA   and  CB  
REMARK    8  A    between atoms: CB   and  CG  
ROOT
ATOM     16  CA  ASN A 133      31.225  30.257  11.749  1.00 18.15     0.196 C 
ENDROOT
BRANCH  16  17
ATOM     17  CB  ASN A 133      30.092  31.240  11.460  1.00 18.27     0.126 C 
BRANCH  17  18
ATOM     18  CG  ASN A 133      28.753  30.581  11.339  1.00 18.94     0.276 C 
ATOM     19  OD1 ASN A 133      28.580  29.620  10.586  1.00 18.09    -0.269 OA
ATOM     20  ND2 ASN A 133      27.779  31.097  12.088  1.00 18.93    -0.107 N 
ENDBRANCH  17  18
ENDBRANCH  16  17
END_RES ASN A 133
