REMARK VINA RESULT:    -3.180      8.440     12.767
REMARK INTER + INTRA:          -6.728
REMARK INTER:                  -3.782
REMARK INTRA:                  -2.946
REMARK UNBOUND:                -3.176
REMARK SMILES Cc1cn(-c2ccc([N+](=O)[O-])cc2)nn1
REMARK SMILES IDX 5 1 6 2 7 3 8 4 12 5 13 6 4 7 1 8 2 9 3 10 15 11 14 12 9 13
REMARK SMILES IDX 10 14 11 15
REMARK H PARENT
REMARK Flexibility Score: inf
ROOT
ATOM      1  C   UNL     1      28.695  31.837  15.349  1.00  0.00     0.067 A 
ATOM      2  C   UNL     1      27.372  32.207  15.311  1.00  0.00     0.035 A 
ATOM      3  C   UNL     1      26.368  31.324  15.738  1.00  0.00     0.088 A 
ATOM      4  C   UNL     1      26.704  30.072  16.199  1.00  0.00     0.269 A 
ATOM      5  C   UNL     1      28.009  29.700  16.239  1.00  0.00     0.088 A 
ATOM      6  C   UNL     1      29.005  30.583  15.814  1.00  0.00     0.035 A 
ENDROOT
BRANCH   1   7
ATOM      7  N   UNL     1      29.680  32.749  14.913  1.00  0.00    -0.220 N 
ATOM      8  C   UNL     1      32.834  34.615  15.033  1.00  0.00     0.070 C 
ATOM      9  C   UNL     1      31.529  33.964  14.810  1.00  0.00     0.080 A 
ATOM     10  C   UNL     1      30.846  33.031  15.545  1.00  0.00     0.140 A 
ATOM     11  N   UNL     1      30.753  34.233  13.732  1.00  0.00    -0.135 NA
ATOM     12  N   UNL     1      29.661  33.503  13.811  1.00  0.00    -0.062 NA
ENDBRANCH   1   7
BRANCH   4  13
ATOM     13  N   UNL     1      25.654  29.191  16.628  1.00  0.00     0.062 N 
ATOM     14  O   UNL     1      24.528  29.292  16.128  1.00  0.00    -0.258 OA
ATOM     15  O   UNL     1      25.879  28.248  17.574  1.00  0.00    -0.258 OA
ENDBRANCH   4  13
TORSDOF 2
BEGIN_RES LYS A 135
REMARK  4 active torsions:
REMARK  status: ('A' for Active; 'I' for Inactive)
REMARK    1  A    between atoms: CA   and  CB  
REMARK    2  A    between atoms: CB   and  CG  
REMARK    3  A    between atoms: CG   and  CD  
REMARK    4  A    between atoms: CD   and  CE  
ROOT
ATOM      1  CA  LYS A 135      33.193  34.663   9.290  1.00 25.02     0.186 C 
ENDROOT
BRANCH   1   2
ATOM      2  CB  LYS A 135      32.060  35.360  10.034  1.00 26.63     0.034 C 
BRANCH   2   3
ATOM      3  CG  LYS A 135      30.794  35.482   9.226  1.00 29.45     0.005 C 
BRANCH   3   4
ATOM      4  CD  LYS A 135      29.786  34.423   9.646  1.00 32.00     0.041 C 
BRANCH   4   5
ATOM      5  CE  LYS A 135      28.640  34.355   8.654  1.00 34.25     0.338 C 
ATOM      6  NZ  LYS A 135      28.955  35.123   7.417  1.00 35.99     0.618 N 
ENDBRANCH   4   5
ENDBRANCH   3   4
ENDBRANCH   2   3
ENDBRANCH   1   2
END_RES LYS A 135
BEGIN_RES TYR A 136
REMARK  2 active torsions:
REMARK  status: ('A' for Active; 'I' for Inactive)
REMARK    5  A    between atoms: CA   and  CB  
REMARK    6  A    between atoms: CB   and  CG  
ROOT
ATOM      7  CA  TYR A 136      36.583  36.399   8.994  1.00 26.14     0.191 C 
ENDROOT
BRANCH   7   8
ATOM      8  CB  TYR A 136      37.367  36.835  10.240  1.00 28.16     0.060 C 
BRANCH   8   9
ATOM      9  CG  TYR A 136      37.182  38.298  10.559  1.00 31.88    -0.020 A 
ATOM     10  CD2 TYR A 136      37.720  38.858  11.720  1.00 32.67    -0.002 A 
ATOM     11  CE2 TYR A 136      37.541  40.218  12.008  1.00 33.89     0.027 A 
ATOM     12  CZ  TYR A 136      36.817  41.025  11.127  1.00 34.34     0.131 A 
ATOM     13  OH  TYR A 136      36.633  42.376  11.389  1.00 35.14    -0.190 OA
ATOM     14  CE1 TYR A 136      36.274  40.484   9.970  1.00 35.01     0.027 A 
ATOM     15  CD1 TYR A 136      36.454  39.127   9.697  1.00 33.57    -0.002 A 
ENDBRANCH   8   9
ENDBRANCH   7   8
END_RES TYR A 136
BEGIN_RES ASN A 133
REMARK  2 active torsions:
REMARK  status: ('A' for Active; 'I' for Inactive)
REMARK    7  A    between atoms: CA   and  CB  
REMARK    8  A    between atoms: CB   and  CG  
ROOT
ATOM     16  CA  ASN A 133      31.225  30.257  11.749  1.00 18.15     0.196 C 
ENDROOT
BRANCH  16  17
ATOM     17  CB  ASN A 133      30.092  31.240  11.460  1.00 18.27     0.126 C 
BRANCH  17  18
ATOM     18  CG  ASN A 133      28.765  30.573  11.267  1.00 18.94     0.276 C 
ATOM     19  OD1 ASN A 133      28.653  29.566  10.567  1.00 18.09    -0.269 OA
ATOM     20  ND2 ASN A 133      27.733  31.138  11.893  1.00 18.93    -0.107 N 
ENDBRANCH  17  18
ENDBRANCH  16  17
END_RES ASN A 133
