REMARK VINA RESULT:    -4.334      1.294      3.691
REMARK INTER + INTRA:          -7.927
REMARK INTER:                  -4.784
REMARK INTRA:                  -3.143
REMARK UNBOUND:                -3.213
REMARK SMILES Cc1cn(-c2nc(C)nc(N)n2)nn1
REMARK SMILES IDX 5 1 12 2 10 3 9 4 7 5 8 6 6 7 4 8 1 9 2 10 3 11 14 12 13 13
REMARK SMILES IDX 11 14
REMARK H PARENT 11 15 11 16
REMARK Flexibility Score: inf
ROOT
ATOM      1  C   UNL     1      21.960  33.713  -0.811  1.00  0.00     0.257 A 
ATOM      2  N   UNL     1      22.050  34.738   0.038  1.00  0.00    -0.175 NA
ATOM      3  C   UNL     1      21.748  35.974  -0.374  1.00  0.00     0.225 A 
ATOM      4  N   UNL     1      21.355  36.178  -1.643  1.00  0.00    -0.198 NA
ATOM      5  C   UNL     1      21.259  35.153  -2.514  1.00  0.00     0.133 A 
ATOM      6  C   UNL     1      20.823  35.377  -3.925  1.00  0.00     0.090 C 
ATOM      7  N   UNL     1      21.570  33.932  -2.065  1.00  0.00    -0.196 NA
ENDROOT
BRANCH   1   8
ATOM      8  N   UNL     1      22.284  32.404  -0.363  1.00  0.00    -0.185 N 
ATOM      9  C   UNL     1      22.649  28.776  -0.555  1.00  0.00     0.070 C 
ATOM     10  C   UNL     1      22.597  30.213  -0.229  1.00  0.00     0.080 A 
ATOM     11  C   UNL     1      22.175  31.238  -1.036  1.00  0.00     0.144 A 
ATOM     12  N   UNL     1      22.955  30.777   0.926  1.00  0.00    -0.135 NA
ATOM     13  N   UNL     1      22.758  32.080   0.818  1.00  0.00    -0.059 NA
ENDBRANCH   1   8
BRANCH   3  14
ATOM     14  N   UNL     1      21.863  37.024   0.575  1.00  0.00    -0.368 N 
ATOM     15  H   UNL     1      21.021  37.561   0.870  1.00  0.00     0.159 HD
ATOM     16  H   UNL     1      22.780  37.277   0.994  1.00  0.00     0.159 HD
ENDBRANCH   3  14
TORSDOF 2
BEGIN_RES LYS A 135
REMARK  4 active torsions:
REMARK  status: ('A' for Active; 'I' for Inactive)
REMARK    1  A    between atoms: CA   and  CB  
REMARK    2  A    between atoms: CB   and  CG  
REMARK    3  A    between atoms: CG   and  CD  
REMARK    4  A    between atoms: CD   and  CE  
ROOT
ATOM      1  CA  LYS A 135      33.193  34.663   9.290  1.00 25.02     0.186 C 
ENDROOT
BRANCH   1   2
ATOM      2  CB  LYS A 135      32.060  35.360  10.034  1.00 26.63     0.034 C 
BRANCH   2   3
ATOM      3  CG  LYS A 135      30.827  35.571   9.194  1.00 29.45     0.005 C 
BRANCH   3   4
ATOM      4  CD  LYS A 135      30.085  34.259   8.991  1.00 32.00     0.041 C 
BRANCH   4   5
ATOM      5  CE  LYS A 135      28.741  34.503   8.332  1.00 34.25     0.338 C 
ATOM      6  NZ  LYS A 135      28.885  35.355   7.120  1.00 35.99     0.618 N 
ENDBRANCH   4   5
ENDBRANCH   3   4
ENDBRANCH   2   3
ENDBRANCH   1   2
END_RES LYS A 135
BEGIN_RES TYR A 136
REMARK  2 active torsions:
REMARK  status: ('A' for Active; 'I' for Inactive)
REMARK    5  A    between atoms: CA   and  CB  
REMARK    6  A    between atoms: CB   and  CG  
ROOT
ATOM      7  CA  TYR A 136      36.583  36.399   8.994  1.00 26.14     0.191 C 
ENDROOT
BRANCH   7   8
ATOM      8  CB  TYR A 136      37.367  36.835  10.240  1.00 28.16     0.060 C 
BRANCH   8   9
ATOM      9  CG  TYR A 136      37.198  38.302  10.548  1.00 31.88    -0.020 A 
ATOM     10  CD2 TYR A 136      37.616  38.838  11.768  1.00 32.67    -0.002 A 
ATOM     11  CE2 TYR A 136      37.453  40.202  12.045  1.00 33.89     0.027 A 
ATOM     12  CZ  TYR A 136      36.864  41.038  11.093  1.00 34.34     0.131 A 
ATOM     13  OH  TYR A 136      36.699  42.393  11.342  1.00 35.14    -0.190 OA
ATOM     14  CE1 TYR A 136      36.442  40.522   9.876  1.00 35.01     0.027 A 
ATOM     15  CD1 TYR A 136      36.604  39.161   9.614  1.00 33.57    -0.002 A 
ENDBRANCH   8   9
ENDBRANCH   7   8
END_RES TYR A 136
BEGIN_RES ASN A 133
REMARK  2 active torsions:
REMARK  status: ('A' for Active; 'I' for Inactive)
REMARK    7  A    between atoms: CA   and  CB  
REMARK    8  A    between atoms: CB   and  CG  
ROOT
ATOM     16  CA  ASN A 133      31.225  30.257  11.749  1.00 18.15     0.196 C 
ENDROOT
BRANCH  16  17
ATOM     17  CB  ASN A 133      30.092  31.240  11.460  1.00 18.27     0.126 C 
BRANCH  17  18
ATOM     18  CG  ASN A 133      28.750  30.584  11.363  1.00 18.94     0.276 C 
ATOM     19  OD1 ASN A 133      28.564  29.617  10.621  1.00 18.09    -0.269 OA
ATOM     20  ND2 ASN A 133      27.787  31.110  12.119  1.00 18.93    -0.107 N 
ENDBRANCH  17  18
ENDBRANCH  16  17
END_RES ASN A 133
