REMARK VINA RESULT:    -5.329      2.378      3.885
REMARK INTER + INTRA:          -6.954
REMARK INTER:                  -3.945
REMARK INTRA:                  -3.009
REMARK UNBOUND:                -1.313
REMARK SMILES Cc1cn(-c2ccccc2I)nn1
REMARK SMILES IDX 5 1 6 2 7 3 8 4 9 5 10 6 11 7 4 8 1 9 2 10 3 11 13 12 12 13
REMARK H PARENT
REMARK Flexibility Score: inf
ROOT
ATOM      1  C   UNL     1      37.838  34.389  14.659  1.00  0.00     0.080 A 
ATOM      2  C   UNL     1      38.214  33.488  13.686  1.00  0.00     0.029 A 
ATOM      3  C   UNL     1      37.429  33.235  12.570  1.00  0.00     0.002 A 
ATOM      4  C   UNL     1      36.219  33.902  12.411  1.00  0.00     0.001 A 
ATOM      5  C   UNL     1      35.825  34.809  13.376  1.00  0.00     0.017 A 
ATOM      6  C   UNL     1      36.624  35.041  14.475  1.00  0.00     0.039 A 
ATOM      7  I   UNL     1      35.992  36.432  15.930  1.00  0.00    -0.042 I 
ENDROOT
BRANCH   1   8
ATOM      8  N   UNL     1      38.660  34.637  15.803  1.00  0.00    -0.219 N 
ATOM      9  C   UNL     1      40.022  34.283  19.151  1.00  0.00     0.070 C 
ATOM     10  C   UNL     1      39.636  34.622  17.745  1.00  0.00     0.080 A 
ATOM     11  C   UNL     1      38.665  34.022  16.982  1.00  0.00     0.140 A 
ATOM     12  N   UNL     1      40.182  35.584  16.983  1.00  0.00    -0.135 NA
ATOM     13  N   UNL     1      39.588  35.580  15.824  1.00  0.00    -0.062 NA
ENDBRANCH   1   8
TORSDOF 1
BEGIN_RES LYS A 135
REMARK  4 active torsions:
REMARK  status: ('A' for Active; 'I' for Inactive)
REMARK    1  A    between atoms: CA   and  CB  
REMARK    2  A    between atoms: CB   and  CG  
REMARK    3  A    between atoms: CG   and  CD  
REMARK    4  A    between atoms: CD   and  CE  
ROOT
ATOM      1  CA  LYS A 135      33.193  34.663   9.290  1.00 25.02     0.186 C 
ENDROOT
BRANCH   1   2
ATOM      2  CB  LYS A 135      32.060  35.360  10.034  1.00 26.63     0.034 C 
BRANCH   2   3
ATOM      3  CG  LYS A 135      30.734  34.654   9.911  1.00 29.45     0.005 C 
BRANCH   3   4
ATOM      4  CD  LYS A 135      30.344  34.497   8.449  1.00 32.00     0.041 C 
BRANCH   4   5
ATOM      5  CE  LYS A 135      28.836  34.546   8.292  1.00 34.25     0.338 C 
ATOM      6  NZ  LYS A 135      28.157  33.829   9.407  1.00 35.99     0.618 N 
ENDBRANCH   4   5
ENDBRANCH   3   4
ENDBRANCH   2   3
ENDBRANCH   1   2
END_RES LYS A 135
BEGIN_RES TYR A 136
REMARK  2 active torsions:
REMARK  status: ('A' for Active; 'I' for Inactive)
REMARK    5  A    between atoms: CA   and  CB  
REMARK    6  A    between atoms: CB   and  CG  
ROOT
ATOM      7  CA  TYR A 136      36.583  36.399   8.994  1.00 26.14     0.191 C 
ENDROOT
BRANCH   7   8
ATOM      8  CB  TYR A 136      37.367  36.835  10.240  1.00 28.16     0.060 C 
BRANCH   8   9
ATOM      9  CG  TYR A 136      36.777  38.058  10.899  1.00 31.88    -0.020 A 
ATOM     10  CD2 TYR A 136      36.165  39.061  10.144  1.00 32.67    -0.002 A 
ATOM     11  CE2 TYR A 136      35.621  40.194  10.765  1.00 33.89     0.027 A 
ATOM     12  CZ  TYR A 136      35.690  40.323  12.155  1.00 34.34     0.131 A 
ATOM     13  OH  TYR A 136      35.152  41.433  12.792  1.00 35.14    -0.190 OA
ATOM     14  CE1 TYR A 136      36.296  39.336  12.920  1.00 35.01     0.027 A 
ATOM     15  CD1 TYR A 136      36.839  38.216  12.289  1.00 33.57    -0.002 A 
ENDBRANCH   8   9
ENDBRANCH   7   8
END_RES TYR A 136
BEGIN_RES ASN A 133
REMARK  2 active torsions:
REMARK  status: ('A' for Active; 'I' for Inactive)
REMARK    7  A    between atoms: CA   and  CB  
REMARK    8  A    between atoms: CB   and  CG  
ROOT
ATOM     16  CA  ASN A 133      31.225  30.257  11.749  1.00 18.15     0.196 C 
ENDROOT
BRANCH  16  17
ATOM     17  CB  ASN A 133      30.092  31.240  11.460  1.00 18.27     0.126 C 
BRANCH  17  18
ATOM     18  CG  ASN A 133      28.750  30.584  11.362  1.00 18.94     0.276 C 
ATOM     19  OD1 ASN A 133      28.567  29.610  10.629  1.00 18.09    -0.269 OA
ATOM     20  ND2 ASN A 133      27.784  31.118  12.108  1.00 18.93    -0.107 N 
ENDBRANCH  17  18
ENDBRANCH  16  17
END_RES ASN A 133
