REMARK VINA RESULT:    -4.214      2.817      4.524
REMARK INTER + INTRA:          -7.743
REMARK INTER:                  -4.481
REMARK INTRA:                  -3.262
REMARK UNBOUND:                -3.283
REMARK SMILES Cc1cn(C23CC4CC(CC(C4)C2)C3)nn1
REMARK SMILES IDX 5 1 14 2 9 3 8 4 7 5 12 6 11 7 10 8 13 9 6 10 4 11 1 12 2 13
REMARK SMILES IDX 3 14 16 15 15 16
REMARK H PARENT
REMARK Flexibility Score: inf
ROOT
ATOM      1  C   UNL     1      38.127  34.609  14.558  1.00  0.00     0.065 C 
ATOM      2  C   UNL     1      39.614  34.828  14.303  1.00  0.00     0.034 C 
ATOM      3  C   UNL     1      39.886  34.593  12.822  1.00  0.00    -0.008 C 
ATOM      4  C   UNL     1      39.056  35.589  12.061  1.00  0.00     0.007 C 
ATOM      5  C   UNL     1      37.598  35.291  12.280  1.00  0.00    -0.008 C 
ATOM      6  C   UNL     1      37.234  33.883  11.935  1.00  0.00     0.007 C 
ATOM      7  C   UNL     1      38.036  32.929  12.786  1.00  0.00    -0.008 C 
ATOM      8  C   UNL     1      39.510  33.183  12.466  1.00  0.00     0.007 C 
ATOM      9  C   UNL     1      37.851  33.156  14.249  1.00  0.00     0.034 C 
ATOM     10  C   UNL     1      37.284  35.549  13.735  1.00  0.00     0.034 C 
ENDROOT
BRANCH   1  11
ATOM     11  N   UNL     1      37.909  34.795  15.986  1.00  0.00    -0.246 N 
ATOM     12  C   UNL     1      38.557  33.860  19.427  1.00  0.00     0.070 C 
ATOM     13  C   UNL     1      38.115  34.446  18.147  1.00  0.00     0.080 A 
ATOM     14  C   UNL     1      38.521  34.028  16.907  1.00  0.00     0.134 A 
ATOM     15  N   UNL     1      37.254  35.470  17.920  1.00  0.00    -0.136 NA
ATOM     16  N   UNL     1      37.151  35.655  16.612  1.00  0.00    -0.067 NA
ENDBRANCH   1  11
TORSDOF 1
BEGIN_RES LYS A 135
REMARK  4 active torsions:
REMARK  status: ('A' for Active; 'I' for Inactive)
REMARK    1  A    between atoms: CA   and  CB  
REMARK    2  A    between atoms: CB   and  CG  
REMARK    3  A    between atoms: CG   and  CD  
REMARK    4  A    between atoms: CD   and  CE  
ROOT
ATOM      1  CA  LYS A 135      33.193  34.663   9.290  1.00 25.02     0.186 C 
ENDROOT
BRANCH   1   2
ATOM      2  CB  LYS A 135      32.060  35.360  10.034  1.00 26.63     0.034 C 
BRANCH   2   3
ATOM      3  CG  LYS A 135      30.696  34.810   9.706  1.00 29.45     0.005 C 
BRANCH   3   4
ATOM      4  CD  LYS A 135      30.587  34.494   8.223  1.00 32.00     0.041 C 
BRANCH   4   5
ATOM      5  CE  LYS A 135      29.345  35.132   7.632  1.00 34.25     0.338 C 
ATOM      6  NZ  LYS A 135      28.112  34.619   8.291  1.00 35.99     0.618 N 
ENDBRANCH   4   5
ENDBRANCH   3   4
ENDBRANCH   2   3
ENDBRANCH   1   2
END_RES LYS A 135
BEGIN_RES TYR A 136
REMARK  2 active torsions:
REMARK  status: ('A' for Active; 'I' for Inactive)
REMARK    5  A    between atoms: CA   and  CB  
REMARK    6  A    between atoms: CB   and  CG  
ROOT
ATOM      7  CA  TYR A 136      36.583  36.399   8.994  1.00 26.14     0.191 C 
ENDROOT
BRANCH   7   8
ATOM      8  CB  TYR A 136      37.367  36.835  10.240  1.00 28.16     0.060 C 
BRANCH   8   9
ATOM      9  CG  TYR A 136      37.199  38.303  10.547  1.00 31.88    -0.020 A 
ATOM     10  CD2 TYR A 136      38.187  39.230  10.207  1.00 32.67    -0.002 A 
ATOM     11  CE2 TYR A 136      38.022  40.591  10.497  1.00 33.89     0.027 A 
ATOM     12  CZ  TYR A 136      36.859  41.028  11.135  1.00 34.34     0.131 A 
ATOM     13  OH  TYR A 136      36.671  42.372  11.427  1.00 35.14    -0.190 OA
ATOM     14  CE1 TYR A 136      35.868  40.121  11.481  1.00 35.01     0.027 A 
ATOM     15  CD1 TYR A 136      36.046  38.767  11.192  1.00 33.57    -0.002 A 
ENDBRANCH   8   9
ENDBRANCH   7   8
END_RES TYR A 136
BEGIN_RES ASN A 133
REMARK  2 active torsions:
REMARK  status: ('A' for Active; 'I' for Inactive)
REMARK    7  A    between atoms: CA   and  CB  
REMARK    8  A    between atoms: CB   and  CG  
ROOT
ATOM     16  CA  ASN A 133      31.225  30.257  11.749  1.00 18.15     0.196 C 
ENDROOT
BRANCH  16  17
ATOM     17  CB  ASN A 133      30.092  31.240  11.460  1.00 18.27     0.126 C 
BRANCH  17  18
ATOM     18  CG  ASN A 133      28.750  30.584  11.364  1.00 18.94     0.276 C 
ATOM     19  OD1 ASN A 133      28.564  29.616  10.625  1.00 18.09    -0.269 OA
ATOM     20  ND2 ASN A 133      27.787  31.112  12.120  1.00 18.93    -0.107 N 
ENDBRANCH  17  18
ENDBRANCH  16  17
END_RES ASN A 133
