REMARK VINA RESULT:    -2.787      6.151      8.474
REMARK INTER + INTRA:          -6.823
REMARK INTER:                  -3.237
REMARK INTRA:                  -3.586
REMARK UNBOUND:                -3.384
REMARK SMILES COCC(C(N)=O)n1cc(C)nn1
REMARK SMILES IDX 3 1 4 2 8 3 11 4 10 5 9 6 12 7 13 8 5 9 7 10 6 11 2 14 1 15
REMARK H PARENT 6 12 6 13
REMARK Flexibility Score: inf
ROOT
ATOM      1  C   UNL     1      38.325  34.866  13.352  1.00  0.00     0.197 C 
ENDROOT
BRANCH   1   2
ATOM      2  C   UNL     1      39.481  34.705  14.332  1.00  0.00     0.223 C 
BRANCH   2   3
ATOM      3  N   UNL     1      40.700  34.342  13.648  1.00  0.00    -0.237 N 
ATOM      4  C   UNL     1      42.922  33.200  10.994  1.00  0.00     0.070 C 
ATOM      5  C   UNL     1      42.241  33.695  12.232  1.00  0.00     0.080 A 
ATOM      6  C   UNL     1      40.894  33.895  12.398  1.00  0.00     0.135 A 
ATOM      7  N   UNL     1      42.815  34.034  13.405  1.00  0.00    -0.136 NA
ATOM      8  N   UNL     1      41.893  34.418  14.243  1.00  0.00    -0.066 NA
ENDBRANCH   2   3
BRANCH   2   9
ATOM      9  C   UNL     1      39.604  35.942  15.107  1.00  0.00     0.244 C 
ATOM     10  O   UNL     1      39.106  35.996  16.260  1.00  0.00    -0.273 OA
ATOM     11  N   UNL     1      40.271  37.080  14.590  1.00  0.00    -0.368 N 
ATOM     12  H   UNL     1      40.965  37.044  13.808  1.00  0.00     0.159 HD
ATOM     13  H   UNL     1      40.103  38.054  14.973  1.00  0.00     0.159 HD
ENDBRANCH   2   9
ENDBRANCH   1   2
BRANCH   1  14
ATOM     14  O   UNL     1      37.456  33.796  13.535  1.00  0.00    -0.382 OA
ATOM     15  C   UNL     1      37.257  33.150  12.304  1.00  0.00     0.195 C 
ENDBRANCH   1  14
TORSDOF 4
BEGIN_RES LYS A 135
REMARK  4 active torsions:
REMARK  status: ('A' for Active; 'I' for Inactive)
REMARK    1  A    between atoms: CA   and  CB  
REMARK    2  A    between atoms: CB   and  CG  
REMARK    3  A    between atoms: CG   and  CD  
REMARK    4  A    between atoms: CD   and  CE  
ROOT
ATOM      1  CA  LYS A 135      33.193  34.663   9.290  1.00 25.02     0.186 C 
ENDROOT
BRANCH   1   2
ATOM      2  CB  LYS A 135      32.060  35.360  10.034  1.00 26.63     0.034 C 
BRANCH   2   3
ATOM      3  CG  LYS A 135      30.731  34.664   9.896  1.00 29.45     0.005 C 
BRANCH   3   4
ATOM      4  CD  LYS A 135      30.329  34.558   8.433  1.00 32.00     0.041 C 
BRANCH   4   5
ATOM      5  CE  LYS A 135      28.819  34.544   8.295  1.00 34.25     0.338 C 
ATOM      6  NZ  LYS A 135      28.182  33.835   9.439  1.00 35.99     0.618 N 
ENDBRANCH   4   5
ENDBRANCH   3   4
ENDBRANCH   2   3
ENDBRANCH   1   2
END_RES LYS A 135
BEGIN_RES TYR A 136
REMARK  2 active torsions:
REMARK  status: ('A' for Active; 'I' for Inactive)
REMARK    5  A    between atoms: CA   and  CB  
REMARK    6  A    between atoms: CB   and  CG  
ROOT
ATOM      7  CA  TYR A 136      36.583  36.399   8.994  1.00 26.14     0.191 C 
ENDROOT
BRANCH   7   8
ATOM      8  CB  TYR A 136      37.367  36.835  10.240  1.00 28.16     0.060 C 
BRANCH   8   9
ATOM      9  CG  TYR A 136      37.197  38.302  10.549  1.00 31.88    -0.020 A 
ATOM     10  CD2 TYR A 136      36.452  39.136   9.711  1.00 32.67    -0.002 A 
ATOM     11  CE2 TYR A 136      36.302  40.498  10.006  1.00 33.89     0.027 A 
ATOM     12  CZ  TYR A 136      36.901  41.030  11.150  1.00 34.34     0.131 A 
ATOM     13  OH  TYR A 136      36.759  42.374  11.465  1.00 35.14    -0.190 OA
ATOM     14  CE1 TYR A 136      37.645  40.217  11.992  1.00 35.01     0.027 A 
ATOM     15  CD1 TYR A 136      37.793  38.863  11.685  1.00 33.57    -0.002 A 
ENDBRANCH   8   9
ENDBRANCH   7   8
END_RES TYR A 136
BEGIN_RES ASN A 133
REMARK  2 active torsions:
REMARK  status: ('A' for Active; 'I' for Inactive)
REMARK    7  A    between atoms: CA   and  CB  
REMARK    8  A    between atoms: CB   and  CG  
ROOT
ATOM     16  CA  ASN A 133      31.225  30.257  11.749  1.00 18.15     0.196 C 
ENDROOT
BRANCH  16  17
ATOM     17  CB  ASN A 133      30.092  31.240  11.460  1.00 18.27     0.126 C 
BRANCH  17  18
ATOM     18  CG  ASN A 133      28.754  30.580  11.334  1.00 18.94     0.276 C 
ATOM     19  OD1 ASN A 133      28.600  29.579  10.632  1.00 18.09    -0.269 OA
ATOM     20  ND2 ASN A 133      27.760  31.142  12.020  1.00 18.93    -0.107 N 
ENDBRANCH  17  18
ENDBRANCH  16  17
END_RES ASN A 133
