REMARK VINA RESULT:    -4.782      1.593      2.129
REMARK INTER + INTRA:          -8.975
REMARK INTER:                  -5.805
REMARK INTRA:                  -3.169
REMARK UNBOUND:                -3.214
REMARK SMILES Cc1cn(-c2cccc(C=CC(=O)O)c2)nn1
REMARK SMILES IDX 10 1 11 2 9 3 5 4 15 5 6 6 7 7 8 8 4 9 1 10 2 11 3 12 17 13
REMARK SMILES IDX 16 14 12 15 13 16 14 17
REMARK H PARENT 14 18
REMARK Flexibility Score: inf
ROOT
ATOM      1  C   UNL     1      37.669  35.514  14.291  1.00  0.00     0.015 C 
ATOM      2  C   UNL     1      38.137  34.454  13.795  1.00  0.00     0.094 C 
ENDROOT
BRANCH   1   3
ATOM      3  C   UNL     1      36.383  36.134  14.286  1.00  0.00    -0.023 A 
ATOM      4  C   UNL     1      33.971  36.185  14.127  1.00  0.00     0.067 A 
ATOM      5  C   UNL     1      35.183  35.489  14.217  1.00  0.00     0.036 A 
ATOM      6  C   UNL     1      34.005  37.557  14.111  1.00  0.00     0.028 A 
ATOM      7  C   UNL     1      35.207  38.229  14.183  1.00  0.00     0.003 A 
ATOM      8  C   UNL     1      36.382  37.546  14.269  1.00  0.00     0.008 A 
BRANCH   4   9
ATOM      9  N   UNL     1      32.742  35.473  14.054  1.00  0.00    -0.220 N 
ATOM     10  C   UNL     1      29.643  34.284  12.445  1.00  0.00     0.070 C 
ATOM     11  C   UNL     1      30.814  34.627  13.301  1.00  0.00     0.080 A 
ATOM     12  C   UNL     1      31.901  35.417  12.990  1.00  0.00     0.140 A 
ATOM     13  N   UNL     1      31.039  34.221  14.571  1.00  0.00    -0.135 NA
ATOM     14  N   UNL     1      32.183  34.728  15.006  1.00  0.00    -0.062 NA
ENDBRANCH   4   9
ENDBRANCH   1   3
BRANCH   2  15
ATOM     15  C   UNL     1      37.658  33.380  13.007  1.00  0.00     0.328 C 
ATOM     16  O   UNL     1      37.140  33.414  11.873  1.00  0.00    -0.247 OA
BRANCH  15  17
ATOM     17  O   UNL     1      37.758  32.044  13.540  1.00  0.00    -0.478 OA
ATOM     18  H   UNL     1      38.711  31.698  13.659  1.00  0.00     0.297 HD
ENDBRANCH  15  17
ENDBRANCH   2  15
TORSDOF 4
BEGIN_RES LYS A 135
REMARK  4 active torsions:
REMARK  status: ('A' for Active; 'I' for Inactive)
REMARK    1  A    between atoms: CA   and  CB  
REMARK    2  A    between atoms: CB   and  CG  
REMARK    3  A    between atoms: CG   and  CD  
REMARK    4  A    between atoms: CD   and  CE  
ROOT
ATOM      1  CA  LYS A 135      33.193  34.663   9.290  1.00 25.02     0.186 C 
ENDROOT
BRANCH   1   2
ATOM      2  CB  LYS A 135      32.060  35.360  10.034  1.00 26.63     0.034 C 
BRANCH   2   3
ATOM      3  CG  LYS A 135      30.876  35.686   9.160  1.00 29.45     0.005 C 
BRANCH   3   4
ATOM      4  CD  LYS A 135      30.382  34.442   8.439  1.00 32.00     0.041 C 
BRANCH   4   5
ATOM      5  CE  LYS A 135      28.910  34.212   8.721  1.00 34.25     0.338 C 
ATOM      6  NZ  LYS A 135      28.056  34.992   7.782  1.00 35.99     0.618 N 
ENDBRANCH   4   5
ENDBRANCH   3   4
ENDBRANCH   2   3
ENDBRANCH   1   2
END_RES LYS A 135
BEGIN_RES TYR A 136
REMARK  2 active torsions:
REMARK  status: ('A' for Active; 'I' for Inactive)
REMARK    5  A    between atoms: CA   and  CB  
REMARK    6  A    between atoms: CB   and  CG  
ROOT
ATOM      7  CA  TYR A 136      36.583  36.399   8.994  1.00 26.14     0.191 C 
ENDROOT
BRANCH   7   8
ATOM      8  CB  TYR A 136      37.367  36.835  10.240  1.00 28.16     0.060 C 
BRANCH   8   9
ATOM      9  CG  TYR A 136      36.999  38.224  10.701  1.00 31.88    -0.020 A 
ATOM     10  CD2 TYR A 136      37.928  39.041  11.348  1.00 32.67    -0.002 A 
ATOM     11  CE2 TYR A 136      37.576  40.329  11.773  1.00 33.89     0.027 A 
ATOM     12  CZ  TYR A 136      36.281  40.804  11.549  1.00 34.34     0.131 A 
ATOM     13  OH  TYR A 136      35.912  42.079  11.955  1.00 35.14    -0.190 OA
ATOM     14  CE1 TYR A 136      35.345  40.005  10.909  1.00 35.01     0.027 A 
ATOM     15  CD1 TYR A 136      35.706  38.721  10.496  1.00 33.57    -0.002 A 
ENDBRANCH   8   9
ENDBRANCH   7   8
END_RES TYR A 136
BEGIN_RES ASN A 133
REMARK  2 active torsions:
REMARK  status: ('A' for Active; 'I' for Inactive)
REMARK    7  A    between atoms: CA   and  CB  
REMARK    8  A    between atoms: CB   and  CG  
ROOT
ATOM     16  CA  ASN A 133      31.225  30.257  11.749  1.00 18.15     0.196 C 
ENDROOT
BRANCH  16  17
ATOM     17  CB  ASN A 133      30.092  31.240  11.460  1.00 18.27     0.126 C 
BRANCH  17  18
ATOM     18  CG  ASN A 133      28.759  30.576  11.301  1.00 18.94     0.276 C 
ATOM     19  OD1 ASN A 133      28.617  29.597  10.567  1.00 18.09    -0.269 OA
ATOM     20  ND2 ASN A 133      27.756  31.111  11.996  1.00 18.93    -0.107 N 
ENDBRANCH  17  18
ENDBRANCH  16  17
END_RES ASN A 133
