REMARK VINA RESULT:    -4.721      5.833      9.279
REMARK INTER + INTRA:          -6.638
REMARK INTER:                  -3.418
REMARK INTRA:                  -3.221
REMARK UNBOUND:                -1.642
REMARK SMILES Cc1cn(C2CCCCC2)nn1
REMARK SMILES IDX 5 1 6 2 7 3 8 4 9 5 10 6 4 7 1 8 2 9 3 10 12 11 11 12
REMARK H PARENT
REMARK Flexibility Score: inf
ROOT
ATOM      1  C   UNL     1      35.808  38.225   2.317  1.00  0.00     0.109 C 
ATOM      2  C   UNL     1      37.136  37.763   2.821  1.00  0.00     0.027 C 
ATOM      3  C   UNL     1      38.127  37.479   1.715  1.00  0.00     0.002 C 
ATOM      4  C   UNL     1      38.431  38.749   0.958  1.00  0.00     0.000 C 
ATOM      5  C   UNL     1      37.339  39.762   1.092  1.00  0.00     0.002 C 
ATOM      6  C   UNL     1      35.955  39.144   1.131  1.00  0.00     0.027 C 
ENDROOT
BRANCH   1   7
ATOM      7  N   UNL     1      35.070  38.858   3.397  1.00  0.00    -0.249 N 
ATOM      8  C   UNL     1      34.122  39.713   6.808  1.00  0.00     0.070 C 
ATOM      9  C   UNL     1      34.274  39.558   5.330  1.00  0.00     0.080 A 
ATOM     10  C   UNL     1      35.210  38.766   4.709  1.00  0.00     0.134 A 
ATOM     11  N   UNL     1      33.569  40.127   4.339  1.00  0.00    -0.136 NA
ATOM     12  N   UNL     1      34.052  39.703   3.188  1.00  0.00    -0.067 NA
ENDBRANCH   1   7
TORSDOF 1
BEGIN_RES LYS A 135
REMARK  4 active torsions:
REMARK  status: ('A' for Active; 'I' for Inactive)
REMARK    1  A    between atoms: CA   and  CB  
REMARK    2  A    between atoms: CB   and  CG  
REMARK    3  A    between atoms: CG   and  CD  
REMARK    4  A    between atoms: CD   and  CE  
ROOT
ATOM      1  CA  LYS A 135      33.193  34.663   9.290  1.00 25.02     0.186 C 
ENDROOT
BRANCH   1   2
ATOM      2  CB  LYS A 135      32.060  35.360  10.034  1.00 26.63     0.034 C 
BRANCH   2   3
ATOM      3  CG  LYS A 135      30.730  34.665   9.895  1.00 29.45     0.005 C 
BRANCH   3   4
ATOM      4  CD  LYS A 135      30.331  34.557   8.431  1.00 32.00     0.041 C 
BRANCH   4   5
ATOM      5  CE  LYS A 135      28.821  34.547   8.290  1.00 34.25     0.338 C 
ATOM      6  NZ  LYS A 135      28.181  33.827   9.426  1.00 35.99     0.618 N 
ENDBRANCH   4   5
ENDBRANCH   3   4
ENDBRANCH   2   3
ENDBRANCH   1   2
END_RES LYS A 135
BEGIN_RES TYR A 136
REMARK  2 active torsions:
REMARK  status: ('A' for Active; 'I' for Inactive)
REMARK    5  A    between atoms: CA   and  CB  
REMARK    6  A    between atoms: CB   and  CG  
ROOT
ATOM      7  CA  TYR A 136      36.583  36.399   8.994  1.00 26.14     0.191 C 
ENDROOT
BRANCH   7   8
ATOM      8  CB  TYR A 136      37.367  36.835  10.240  1.00 28.16     0.060 C 
BRANCH   8   9
ATOM      9  CG  TYR A 136      37.196  38.302  10.549  1.00 31.88    -0.020 A 
ATOM     10  CD2 TYR A 136      36.587  39.167   9.637  1.00 32.67    -0.002 A 
ATOM     11  CE2 TYR A 136      36.435  40.528   9.933  1.00 33.89     0.027 A 
ATOM     12  CZ  TYR A 136      36.897  41.029  11.152  1.00 34.34     0.131 A 
ATOM     13  OH  TYR A 136      36.751  42.373  11.470  1.00 35.14    -0.190 OA
ATOM     14  CE1 TYR A 136      37.506  40.185  12.069  1.00 35.01     0.027 A 
ATOM     15  CD1 TYR A 136      37.658  38.832  11.761  1.00 33.57    -0.002 A 
ENDBRANCH   8   9
ENDBRANCH   7   8
END_RES TYR A 136
BEGIN_RES ASN A 133
REMARK  2 active torsions:
REMARK  status: ('A' for Active; 'I' for Inactive)
REMARK    7  A    between atoms: CA   and  CB  
REMARK    8  A    between atoms: CB   and  CG  
ROOT
ATOM     16  CA  ASN A 133      31.225  30.257  11.749  1.00 18.15     0.196 C 
ENDROOT
BRANCH  16  17
ATOM     17  CB  ASN A 133      30.092  31.240  11.460  1.00 18.27     0.126 C 
BRANCH  17  18
ATOM     18  CG  ASN A 133      28.752  30.581  11.345  1.00 18.94     0.276 C 
ATOM     19  OD1 ASN A 133      28.583  29.600  10.619  1.00 18.09    -0.269 OA
ATOM     20  ND2 ASN A 133      27.773  31.123  12.069  1.00 18.93    -0.107 N 
ENDBRANCH  17  18
ENDBRANCH  16  17
END_RES ASN A 133
