REMARK VINA RESULT:    -4.410      4.164      6.460
REMARK INTER + INTRA:          -9.375
REMARK INTER:                  -5.730
REMARK INTRA:                  -3.644
REMARK UNBOUND:                -3.546
REMARK SMILES Cc1cn(CC(O)CCc2ccccc2)nn1
REMARK SMILES IDX 8 1 6 2 5 3 4 4 1 5 2 6 3 7 17 8 16 9 7 10 9 12 10 13 11 14
REMARK SMILES IDX 15 15 12 16 14 17 13 18
REMARK H PARENT 7 11
REMARK Flexibility Score: inf
ROOT
ATOM      1  C   UNL     1      32.275  34.419  15.674  1.00  0.00     0.038 C 
ENDROOT
BRANCH   1   2
ATOM      2  C   UNL     1      31.598  33.091  15.924  1.00  0.00     0.136 C 
BRANCH   2   3
ATOM      3  C   UNL     1      30.215  33.307  16.500  1.00  0.00     0.177 C 
BRANCH   3   4
ATOM      4  N   UNL     1      29.377  32.157  16.245  1.00  0.00    -0.250 N 
ATOM      5  C   UNL     1      26.174  30.557  15.474  1.00  0.00     0.070 C 
ATOM      6  C   UNL     1      27.579  30.968  15.791  1.00  0.00     0.080 A 
ATOM      7  C   UNL     1      28.051  32.238  15.981  1.00  0.00     0.134 A 
ATOM      8  N   UNL     1      28.620  30.141  15.943  1.00  0.00    -0.136 NA
ATOM      9  N   UNL     1      29.680  30.879  16.213  1.00  0.00    -0.067 NA
ENDBRANCH   3   4
ENDBRANCH   2   3
BRANCH   2  10
ATOM     10  O   UNL     1      31.586  32.347  14.771  1.00  0.00    -0.391 OA
ATOM     11  H   UNL     1      30.941  31.597  14.776  1.00  0.00     0.211 HD
ENDBRANCH   2  10
ENDBRANCH   1   2
BRANCH   1  12
ATOM     12  C   UNL     1      33.151  34.413  14.455  1.00  0.00     0.038 C 
BRANCH  12  13
ATOM     13  C   UNL     1      32.732  35.537  13.589  1.00  0.00    -0.048 A 
ATOM     14  C   UNL     1      31.401  35.924  13.588  1.00  0.00     0.004 A 
ATOM     15  C   UNL     1      33.601  36.226  12.774  1.00  0.00     0.004 A 
ATOM     16  C   UNL     1      30.985  36.970  12.789  1.00  0.00     0.000 A 
ATOM     17  C   UNL     1      33.175  37.272  11.977  1.00  0.00     0.000 A 
ATOM     18  C   UNL     1      31.852  37.664  11.971  1.00  0.00     0.000 A 
ENDBRANCH  12  13
ENDBRANCH   1  12
TORSDOF 6
BEGIN_RES LYS A 135
REMARK  4 active torsions:
REMARK  status: ('A' for Active; 'I' for Inactive)
REMARK    1  A    between atoms: CA   and  CB  
REMARK    2  A    between atoms: CB   and  CG  
REMARK    3  A    between atoms: CG   and  CD  
REMARK    4  A    between atoms: CD   and  CE  
ROOT
ATOM      1  CA  LYS A 135      33.193  34.663   9.290  1.00 25.02     0.186 C 
ENDROOT
BRANCH   1   2
ATOM      2  CB  LYS A 135      32.060  35.360  10.034  1.00 26.63     0.034 C 
BRANCH   2   3
ATOM      3  CG  LYS A 135      30.733  34.657   9.906  1.00 29.45     0.005 C 
BRANCH   3   4
ATOM      4  CD  LYS A 135      30.329  34.535   8.445  1.00 32.00     0.041 C 
BRANCH   4   5
ATOM      5  CE  LYS A 135      28.819  34.518   8.310  1.00 34.25     0.338 C 
ATOM      6  NZ  LYS A 135      28.185  33.813   9.458  1.00 35.99     0.618 N 
ENDBRANCH   4   5
ENDBRANCH   3   4
ENDBRANCH   2   3
ENDBRANCH   1   2
END_RES LYS A 135
BEGIN_RES TYR A 136
REMARK  2 active torsions:
REMARK  status: ('A' for Active; 'I' for Inactive)
REMARK    5  A    between atoms: CA   and  CB  
REMARK    6  A    between atoms: CB   and  CG  
ROOT
ATOM      7  CA  TYR A 136      36.583  36.399   8.994  1.00 26.14     0.191 C 
ENDROOT
BRANCH   7   8
ATOM      8  CB  TYR A 136      37.367  36.835  10.240  1.00 28.16     0.060 C 
BRANCH   8   9
ATOM      9  CG  TYR A 136      36.734  38.011  10.942  1.00 31.88    -0.020 A 
ATOM     10  CD2 TYR A 136      36.019  38.978  10.232  1.00 32.67    -0.002 A 
ATOM     11  CE2 TYR A 136      35.435  40.067  10.893  1.00 33.89     0.027 A 
ATOM     12  CZ  TYR A 136      35.570  40.191  12.278  1.00 34.34     0.131 A 
ATOM     13  OH  TYR A 136      34.995  41.258  12.955  1.00 35.14    -0.190 OA
ATOM     14  CE1 TYR A 136      36.278  39.240  12.999  1.00 35.01     0.027 A 
ATOM     15  CD1 TYR A 136      36.859  38.163  12.329  1.00 33.57    -0.002 A 
ENDBRANCH   8   9
ENDBRANCH   7   8
END_RES TYR A 136
BEGIN_RES ASN A 133
REMARK  2 active torsions:
REMARK  status: ('A' for Active; 'I' for Inactive)
REMARK    7  A    between atoms: CA   and  CB  
REMARK    8  A    between atoms: CB   and  CG  
ROOT
ATOM     16  CA  ASN A 133      31.225  30.257  11.749  1.00 18.15     0.196 C 
ENDROOT
BRANCH  16  17
ATOM     17  CB  ASN A 133      30.092  31.240  11.460  1.00 18.27     0.126 C 
BRANCH  17  18
ATOM     18  CG  ASN A 133      28.748  30.585  11.374  1.00 18.94     0.276 C 
ATOM     19  OD1 ASN A 133      28.553  29.625  10.627  1.00 18.09    -0.269 OA
ATOM     20  ND2 ASN A 133      27.796  31.106  12.146  1.00 18.93    -0.107 N 
ENDBRANCH  17  18
ENDBRANCH  16  17
END_RES ASN A 133
