REMARK VINA RESULT:    -6.242      0.000      0.000
REMARK INTER + INTRA:          -9.871
REMARK INTER:                  -6.572
REMARK INTRA:                  -3.298
REMARK UNBOUND:                -3.263
REMARK SMILES Cc1cn(C2c3ccccc3-c3ccccc32)nn1
REMARK SMILES IDX 5 1 6 2 7 3 8 4 9 5 10 6 11 7 12 8 13 9 14 10 15 11 16 12
REMARK SMILES IDX 17 13 4 14 1 15 2 16 3 17 19 18 18 19
REMARK H PARENT
REMARK Flexibility Score: inf
ROOT
ATOM      1  C   UNL     1      34.876  36.045  12.977  1.00  0.00     0.170 C 
ATOM      2  C   UNL     1      36.035  35.143  13.036  1.00  0.00    -0.011 A 
ATOM      3  C   UNL     1      36.191  33.883  12.480  1.00  0.00     0.007 A 
ATOM      4  C   UNL     1      37.374  33.198  12.657  1.00  0.00     0.000 A 
ATOM      5  C   UNL     1      38.390  33.791  13.392  1.00  0.00     0.001 A 
ATOM      6  C   UNL     1      38.237  35.052  13.948  1.00  0.00     0.009 A 
ATOM      7  C   UNL     1      37.042  35.722  13.759  1.00  0.00    -0.012 A 
ATOM      8  C   UNL     1      36.575  37.022  14.199  1.00  0.00    -0.012 A 
ATOM      9  C   UNL     1      37.243  37.987  14.966  1.00  0.00     0.009 A 
ATOM     10  C   UNL     1      36.587  39.150  15.256  1.00  0.00     0.001 A 
ATOM     11  C   UNL     1      35.298  39.416  14.827  1.00  0.00     0.000 A 
ATOM     12  C   UNL     1      34.693  38.441  14.082  1.00  0.00     0.007 A 
ATOM     13  C   UNL     1      35.296  37.229  13.745  1.00  0.00    -0.011 A 
ENDROOT
BRANCH   1  14
ATOM     14  N   UNL     1      33.687  35.430  13.466  1.00  0.00    -0.240 N 
ATOM     15  C   UNL     1      31.728  33.591  15.914  1.00  0.00     0.070 C 
ATOM     16  C   UNL     1      32.261  34.340  14.754  1.00  0.00     0.080 A 
ATOM     17  C   UNL     1      33.565  34.802  14.642  1.00  0.00     0.135 A 
ATOM     18  N   UNL     1      31.645  34.712  13.631  1.00  0.00    -0.136 NA
ATOM     19  N   UNL     1      32.521  35.372  12.858  1.00  0.00    -0.066 NA
ENDBRANCH   1  14
TORSDOF 1
BEGIN_RES LYS A 135
REMARK  4 active torsions:
REMARK  status: ('A' for Active; 'I' for Inactive)
REMARK    1  A    between atoms: CA   and  CB  
REMARK    2  A    between atoms: CB   and  CG  
REMARK    3  A    between atoms: CG   and  CD  
REMARK    4  A    between atoms: CD   and  CE  
ROOT
ATOM      1  CA  LYS A 135      33.193  34.663   9.290  1.00 25.02     0.186 C 
ENDROOT
BRANCH   1   2
ATOM      2  CB  LYS A 135      32.060  35.360  10.034  1.00 26.63     0.034 C 
BRANCH   2   3
ATOM      3  CG  LYS A 135      30.702  34.772   9.751  1.00 29.45     0.005 C 
BRANCH   3   4
ATOM      4  CD  LYS A 135      30.516  34.544   8.258  1.00 32.00     0.041 C 
BRANCH   4   5
ATOM      5  CE  LYS A 135      29.093  34.864   7.843  1.00 34.25     0.338 C 
ATOM      6  NZ  LYS A 135      28.112  34.305   8.815  1.00 35.99     0.618 N 
ENDBRANCH   4   5
ENDBRANCH   3   4
ENDBRANCH   2   3
ENDBRANCH   1   2
END_RES LYS A 135
BEGIN_RES TYR A 136
REMARK  2 active torsions:
REMARK  status: ('A' for Active; 'I' for Inactive)
REMARK    5  A    between atoms: CA   and  CB  
REMARK    6  A    between atoms: CB   and  CG  
ROOT
ATOM      7  CA  TYR A 136      36.583  36.399   8.994  1.00 26.14     0.191 C 
ENDROOT
BRANCH   7   8
ATOM      8  CB  TYR A 136      37.367  36.835  10.240  1.00 28.16     0.060 C 
BRANCH   8   9
ATOM      9  CG  TYR A 136      37.005  38.227  10.695  1.00 31.88    -0.020 A 
ATOM     10  CD2 TYR A 136      35.765  38.790  10.387  1.00 32.67    -0.002 A 
ATOM     11  CE2 TYR A 136      35.439  40.085  10.813  1.00 33.89     0.027 A 
ATOM     12  CZ  TYR A 136      36.364  40.824  11.554  1.00 34.34     0.131 A 
ATOM     13  OH  TYR A 136      36.061  42.105  11.993  1.00 35.14    -0.190 OA
ATOM     14  CE1 TYR A 136      37.602  40.282  11.868  1.00 35.01     0.027 A 
ATOM     15  CD1 TYR A 136      37.917  38.993  11.433  1.00 33.57    -0.002 A 
ENDBRANCH   8   9
ENDBRANCH   7   8
END_RES TYR A 136
BEGIN_RES ASN A 133
REMARK  2 active torsions:
REMARK  status: ('A' for Active; 'I' for Inactive)
REMARK    7  A    between atoms: CA   and  CB  
REMARK    8  A    between atoms: CB   and  CG  
ROOT
ATOM     16  CA  ASN A 133      31.225  30.257  11.749  1.00 18.15     0.196 C 
ENDROOT
BRANCH  16  17
ATOM     17  CB  ASN A 133      30.092  31.240  11.460  1.00 18.27     0.126 C 
BRANCH  17  18
ATOM     18  CG  ASN A 133      28.755  30.579  11.326  1.00 18.94     0.276 C 
ATOM     19  OD1 ASN A 133      28.590  29.620  10.570  1.00 18.09    -0.269 OA
ATOM     20  ND2 ASN A 133      27.774  31.093  12.067  1.00 18.93    -0.107 N 
ENDBRANCH  17  18
ENDBRANCH  16  17
END_RES ASN A 133
