REMARK VINA RESULT:    -3.596      7.212     13.069
REMARK INTER + INTRA:          -6.956
REMARK INTER:                  -3.791
REMARK INTRA:                  -3.165
REMARK UNBOUND:                -3.149
REMARK SMILES Cc1cn(-c2ccncc2)nn1
REMARK SMILES IDX 1 1 2 2 3 3 4 4 11 5 12 6 5 7 6 8 10 9 7 10 9 11 8 12
REMARK H PARENT
REMARK Flexibility Score: inf
ROOT
ATOM      1  C   UNL     1      31.836  37.190  12.442  1.00  0.00     0.070 C 
ATOM      2  C   UNL     1      32.795  36.220  13.005  1.00  0.00     0.080 A 
ATOM      3  C   UNL     1      34.130  36.035  12.672  1.00  0.00     0.140 A 
ATOM      4  N   UNL     1      34.633  35.047  13.427  1.00  0.00    -0.220 N 
ATOM      5  N   UNL     1      33.650  34.627  14.207  1.00  0.00    -0.062 NA
ATOM      6  N   UNL     1      32.543  35.316  13.968  1.00  0.00    -0.135 NA
ENDROOT
BRANCH   4   7
ATOM      7  C   UNL     1      35.971  34.561  13.382  1.00  0.00     0.069 A 
ATOM      8  C   UNL     1      36.888  34.947  14.345  1.00  0.00     0.048 A 
ATOM      9  C   UNL     1      36.423  33.704  12.406  1.00  0.00     0.048 A 
ATOM     10  C   UNL     1      38.171  34.475  14.294  1.00  0.00     0.113 A 
ATOM     11  C   UNL     1      37.715  33.232  12.357  1.00  0.00     0.113 A 
ATOM     12  N   UNL     1      38.554  33.643  13.321  1.00  0.00    -0.265 NA
ENDBRANCH   4   7
TORSDOF 1
BEGIN_RES LYS A 135
REMARK  4 active torsions:
REMARK  status: ('A' for Active; 'I' for Inactive)
REMARK    1  A    between atoms: CA   and  CB  
REMARK    2  A    between atoms: CB   and  CG  
REMARK    3  A    between atoms: CG   and  CD  
REMARK    4  A    between atoms: CD   and  CE  
ROOT
ATOM      1  CA  LYS A 135      33.193  34.663   9.290  1.00 25.02     0.186 C 
ENDROOT
BRANCH   1   2
ATOM      2  CB  LYS A 135      32.060  35.360  10.034  1.00 26.63     0.034 C 
BRANCH   2   3
ATOM      3  CG  LYS A 135      30.703  34.768   9.756  1.00 29.45     0.005 C 
BRANCH   3   4
ATOM      4  CD  LYS A 135      30.474  34.628   8.259  1.00 32.00     0.041 C 
BRANCH   4   5
ATOM      5  CE  LYS A 135      29.009  34.831   7.922  1.00 34.25     0.338 C 
ATOM      6  NZ  LYS A 135      28.851  35.552   6.629  1.00 35.99     0.618 N 
ENDBRANCH   4   5
ENDBRANCH   3   4
ENDBRANCH   2   3
ENDBRANCH   1   2
END_RES LYS A 135
BEGIN_RES TYR A 136
REMARK  2 active torsions:
REMARK  status: ('A' for Active; 'I' for Inactive)
REMARK    5  A    between atoms: CA   and  CB  
REMARK    6  A    between atoms: CB   and  CG  
ROOT
ATOM      7  CA  TYR A 136      36.583  36.399   8.994  1.00 26.14     0.191 C 
ENDROOT
BRANCH   7   8
ATOM      8  CB  TYR A 136      37.367  36.835  10.240  1.00 28.16     0.060 C 
BRANCH   8   9
ATOM      9  CG  TYR A 136      37.122  38.279  10.604  1.00 31.88    -0.020 A 
ATOM     10  CD2 TYR A 136      36.404  39.126   9.757  1.00 32.67    -0.002 A 
ATOM     11  CE2 TYR A 136      36.184  40.466  10.103  1.00 33.89     0.027 A 
ATOM     12  CZ  TYR A 136      36.687  40.963  11.308  1.00 34.34     0.131 A 
ATOM     13  OH  TYR A 136      36.475  42.285  11.675  1.00 35.14    -0.190 OA
ATOM     14  CE1 TYR A 136      37.404  40.136  12.160  1.00 35.01     0.027 A 
ATOM     15  CD1 TYR A 136      37.623  38.805  11.802  1.00 33.57    -0.002 A 
ENDBRANCH   8   9
ENDBRANCH   7   8
END_RES TYR A 136
BEGIN_RES ASN A 133
REMARK  2 active torsions:
REMARK  status: ('A' for Active; 'I' for Inactive)
REMARK    7  A    between atoms: CA   and  CB  
REMARK    8  A    between atoms: CB   and  CG  
ROOT
ATOM     16  CA  ASN A 133      31.225  30.257  11.749  1.00 18.15     0.196 C 
ENDROOT
BRANCH  16  17
ATOM     17  CB  ASN A 133      30.092  31.240  11.460  1.00 18.27     0.126 C 
BRANCH  17  18
ATOM     18  CG  ASN A 133      28.748  30.585  11.373  1.00 18.94     0.276 C 
ATOM     19  OD1 ASN A 133      28.560  29.608  10.645  1.00 18.09    -0.269 OA
ATOM     20  ND2 ASN A 133      27.787  31.125  12.122  1.00 18.93    -0.107 N 
ENDBRANCH  17  18
ENDBRANCH  16  17
END_RES ASN A 133
