REMARK VINA RESULT:    -5.248      2.702      4.247
REMARK INTER + INTRA:          -7.196
REMARK INTER:                  -4.037
REMARK INTRA:                  -3.160
REMARK UNBOUND:                -1.642
REMARK SMILES Cc1cn(C2CCCCC2)nn1
REMARK SMILES IDX 5 1 6 2 7 3 8 4 9 5 10 6 4 7 1 8 2 9 3 10 12 11 11 12
REMARK H PARENT
REMARK Flexibility Score: inf
ROOT
ATOM      1  C   UNL     1      35.452  34.973  13.790  1.00  0.00     0.109 C 
ATOM      2  C   UNL     1      36.364  35.979  14.414  1.00  0.00     0.027 C 
ATOM      3  C   UNL     1      37.751  35.439  14.684  1.00  0.00     0.002 C 
ATOM      4  C   UNL     1      38.423  35.075  13.382  1.00  0.00     0.000 C 
ATOM      5  C   UNL     1      37.436  34.806  12.292  1.00  0.00     0.002 C 
ATOM      6  C   UNL     1      36.179  34.117  12.784  1.00  0.00     0.027 C 
ENDROOT
BRANCH   1   7
ATOM      7  N   UNL     1      34.314  35.651  13.194  1.00  0.00    -0.249 N 
ATOM      8  C   UNL     1      32.466  38.192  11.352  1.00  0.00     0.070 C 
ATOM      9  C   UNL     1      32.939  37.016  12.143  1.00  0.00     0.080 A 
ATOM     10  C   UNL     1      34.243  36.776  12.501  1.00  0.00     0.134 A 
ATOM     11  N   UNL     1      32.232  35.992  12.648  1.00  0.00    -0.136 NA
ATOM     12  N   UNL     1      33.062  35.182  13.274  1.00  0.00    -0.067 NA
ENDBRANCH   1   7
TORSDOF 1
BEGIN_RES LYS A 135
REMARK  4 active torsions:
REMARK  status: ('A' for Active; 'I' for Inactive)
REMARK    1  A    between atoms: CA   and  CB  
REMARK    2  A    between atoms: CB   and  CG  
REMARK    3  A    between atoms: CG   and  CD  
REMARK    4  A    between atoms: CD   and  CE  
ROOT
ATOM      1  CA  LYS A 135      33.193  34.663   9.290  1.00 25.02     0.186 C 
ENDROOT
BRANCH   1   2
ATOM      2  CB  LYS A 135      32.060  35.360  10.034  1.00 26.63     0.034 C 
BRANCH   2   3
ATOM      3  CG  LYS A 135      30.695  34.814   9.701  1.00 29.45     0.005 C 
BRANCH   3   4
ATOM      4  CD  LYS A 135      30.597  34.480   8.221  1.00 32.00     0.041 C 
BRANCH   4   5
ATOM      5  CE  LYS A 135      29.379  35.142   7.605  1.00 34.25     0.338 C 
ATOM      6  NZ  LYS A 135      28.124  34.652   8.240  1.00 35.99     0.618 N 
ENDBRANCH   4   5
ENDBRANCH   3   4
ENDBRANCH   2   3
ENDBRANCH   1   2
END_RES LYS A 135
BEGIN_RES TYR A 136
REMARK  2 active torsions:
REMARK  status: ('A' for Active; 'I' for Inactive)
REMARK    5  A    between atoms: CA   and  CB  
REMARK    6  A    between atoms: CB   and  CG  
ROOT
ATOM      7  CA  TYR A 136      36.583  36.399   8.994  1.00 26.14     0.191 C 
ENDROOT
BRANCH   7   8
ATOM      8  CB  TYR A 136      37.367  36.835  10.240  1.00 28.16     0.060 C 
BRANCH   8   9
ATOM      9  CG  TYR A 136      36.938  38.188  10.751  1.00 31.88    -0.020 A 
ATOM     10  CD2 TYR A 136      37.383  38.670  11.984  1.00 32.67    -0.002 A 
ATOM     11  CE2 TYR A 136      36.977  39.928  12.451  1.00 33.89     0.027 A 
ATOM     12  CZ  TYR A 136      36.118  40.711  11.676  1.00 34.34     0.131 A 
ATOM     13  OH  TYR A 136      35.709  41.963  12.115  1.00 35.14    -0.190 OA
ATOM     14  CE1 TYR A 136      35.666  40.248  10.449  1.00 35.01     0.027 A 
ATOM     15  CD1 TYR A 136      36.071  38.991   9.998  1.00 33.57    -0.002 A 
ENDBRANCH   8   9
ENDBRANCH   7   8
END_RES TYR A 136
BEGIN_RES ASN A 133
REMARK  2 active torsions:
REMARK  status: ('A' for Active; 'I' for Inactive)
REMARK    7  A    between atoms: CA   and  CB  
REMARK    8  A    between atoms: CB   and  CG  
ROOT
ATOM     16  CA  ASN A 133      31.225  30.257  11.749  1.00 18.15     0.196 C 
ENDROOT
BRANCH  16  17
ATOM     17  CB  ASN A 133      30.092  31.240  11.460  1.00 18.27     0.126 C 
BRANCH  17  18
ATOM     18  CG  ASN A 133      28.755  30.579  11.329  1.00 18.94     0.276 C 
ATOM     19  OD1 ASN A 133      28.591  29.612  10.583  1.00 18.09    -0.269 OA
ATOM     20  ND2 ASN A 133      27.772  31.103  12.060  1.00 18.93    -0.107 N 
ENDBRANCH  17  18
ENDBRANCH  16  17
END_RES ASN A 133
