REMARK VINA RESULT:    -4.084      6.306     11.669
REMARK INTER + INTRA:          -7.871
REMARK INTER:                  -5.678
REMARK INTRA:                  -2.193
REMARK UNBOUND:                -3.310
REMARK SMILES Cc1cn(-c2cc(Cl)ccc2C(=O)N(C)C)nn1
REMARK SMILES IDX 5 1 6 2 7 3 8 4 9 5 10 6 11 7 4 8 1 9 2 10 3 11 18 12 17 13
REMARK SMILES IDX 12 14 13 15 14 16 15 17 16 18
REMARK H PARENT
REMARK Flexibility Score: inf
ROOT
ATOM      1  C   UNL     1      25.521  36.875   8.084  1.00  0.00     0.081 A 
ATOM      2  C   UNL     1      26.601  36.857   7.190  1.00  0.00     0.049 A 
ATOM      3  C   UNL     1      27.474  35.791   7.167  1.00  0.00     0.043 A 
ATOM      4  Cl  UNL     1      28.826  35.785   6.038  1.00  0.00    -0.084 Cl
ATOM      5  C   UNL     1      27.306  34.721   8.019  1.00  0.00     0.021 A 
ATOM      6  C   UNL     1      26.244  34.743   8.893  1.00  0.00     0.017 A 
ATOM      7  C   UNL     1      25.379  35.800   8.917  1.00  0.00     0.065 A 
ENDROOT
BRANCH   1   8
ATOM      8  N   UNL     1      24.628  37.981   8.098  1.00  0.00    -0.220 N 
ATOM      9  C   UNL     1      23.471  41.344   8.992  1.00  0.00     0.070 C 
ATOM     10  C   UNL     1      23.693  39.956   8.484  1.00  0.00     0.080 A 
ATOM     11  C   UNL     1      24.807  39.146   8.724  1.00  0.00     0.140 A 
ATOM     12  N   UNL     1      22.886  39.217   7.709  1.00  0.00    -0.135 NA
ATOM     13  N   UNL     1      23.472  38.056   7.502  1.00  0.00    -0.062 NA
ENDBRANCH   1   8
BRANCH   7  14
ATOM     14  C   UNL     1      24.258  35.792   9.861  1.00  0.00     0.255 C 
ATOM     15  O   UNL     1      23.139  35.325   9.542  1.00  0.00    -0.269 OA
ATOM     16  N   UNL     1      24.476  36.335  11.159  1.00  0.00    -0.345 N 
ATOM     17  C   UNL     1      23.365  36.337  12.120  1.00  0.00     0.146 C 
ATOM     18  C   UNL     1      25.738  36.877  11.560  1.00  0.00     0.146 C 
ENDBRANCH   7  14
TORSDOF 2
BEGIN_RES LYS A 135
REMARK  4 active torsions:
REMARK  status: ('A' for Active; 'I' for Inactive)
REMARK    1  A    between atoms: CA   and  CB  
REMARK    2  A    between atoms: CB   and  CG  
REMARK    3  A    between atoms: CG   and  CD  
REMARK    4  A    between atoms: CD   and  CE  
ROOT
ATOM      1  CA  LYS A 135      33.193  34.663   9.290  1.00 25.02     0.186 C 
ENDROOT
BRANCH   1   2
ATOM      2  CB  LYS A 135      32.060  35.360  10.034  1.00 26.63     0.034 C 
BRANCH   2   3
ATOM      3  CG  LYS A 135      30.795  35.485   9.225  1.00 29.45     0.005 C 
BRANCH   3   4
ATOM      4  CD  LYS A 135      30.352  36.938   9.143  1.00 32.00     0.041 C 
BRANCH   4   5
ATOM      5  CE  LYS A 135      29.231  37.209  10.127  1.00 34.25     0.338 C 
ATOM      6  NZ  LYS A 135      28.502  38.460   9.779  1.00 35.99     0.618 N 
ENDBRANCH   4   5
ENDBRANCH   3   4
ENDBRANCH   2   3
ENDBRANCH   1   2
END_RES LYS A 135
BEGIN_RES TYR A 136
REMARK  2 active torsions:
REMARK  status: ('A' for Active; 'I' for Inactive)
REMARK    5  A    between atoms: CA   and  CB  
REMARK    6  A    between atoms: CB   and  CG  
ROOT
ATOM      7  CA  TYR A 136      36.583  36.399   8.994  1.00 26.14     0.191 C 
ENDROOT
BRANCH   7   8
ATOM      8  CB  TYR A 136      37.367  36.835  10.240  1.00 28.16     0.060 C 
BRANCH   8   9
ATOM      9  CG  TYR A 136      37.193  38.301  10.552  1.00 31.88    -0.020 A 
ATOM     10  CD2 TYR A 136      38.270  39.187  10.489  1.00 32.67    -0.002 A 
ATOM     11  CE2 TYR A 136      38.098  40.547  10.782  1.00 33.89     0.027 A 
ATOM     12  CZ  TYR A 136      36.836  41.024  11.142  1.00 34.34     0.131 A 
ATOM     13  OH  TYR A 136      36.640  42.368  11.429  1.00 35.14    -0.190 OA
ATOM     14  CE1 TYR A 136      35.754  40.158  11.211  1.00 35.01     0.027 A 
ATOM     15  CD1 TYR A 136      35.939  38.805  10.923  1.00 33.57    -0.002 A 
ENDBRANCH   8   9
ENDBRANCH   7   8
END_RES TYR A 136
BEGIN_RES ASN A 133
REMARK  2 active torsions:
REMARK  status: ('A' for Active; 'I' for Inactive)
REMARK    7  A    between atoms: CA   and  CB  
REMARK    8  A    between atoms: CB   and  CG  
ROOT
ATOM     16  CA  ASN A 133      31.225  30.257  11.749  1.00 18.15     0.196 C 
ENDROOT
BRANCH  16  17
ATOM     17  CB  ASN A 133      30.092  31.240  11.460  1.00 18.27     0.126 C 
BRANCH  17  18
ATOM     18  CG  ASN A 133      28.755  30.579  11.329  1.00 18.94     0.276 C 
ATOM     19  OD1 ASN A 133      28.586  29.624  10.569  1.00 18.09    -0.269 OA
ATOM     20  ND2 ASN A 133      27.777  31.089  12.078  1.00 18.93    -0.107 N 
ENDBRANCH  17  18
ENDBRANCH  16  17
END_RES ASN A 133
