REMARK VINA RESULT:    -4.334      6.083     10.843
REMARK INTER + INTRA:          -7.679
REMARK INTER:                  -4.648
REMARK INTRA:                  -3.031
REMARK UNBOUND:                -2.839
REMARK SMILES Cc1cn(-c2ncn3c2c(=O)n(C(C)C)c2ccccc23)nn1
REMARK SMILES IDX 5 1 6 2 7 3 8 4 21 5 20 6 19 7 18 8 17 9 16 10 12 11 10 12
REMARK SMILES IDX 11 13 9 14 4 15 1 16 2 17 3 18 23 19 22 20 13 21 14 22 15 23
REMARK H PARENT
REMARK Flexibility Score: inf
ROOT
ATOM      1  C   UNL     1      29.281  30.431  18.970  1.00  0.00     0.186 A 
ATOM      2  N   UNL     1      29.851  29.704  19.942  1.00  0.00    -0.216 NA
ATOM      3  C   UNL     1      29.021  28.736  20.367  1.00  0.00     0.207 A 
ATOM      4  N   UNL     1      27.882  28.852  19.639  1.00  0.00    -0.291 N 
ATOM      5  C   UNL     1      26.720  28.153  19.637  1.00  0.00     0.071 A 
ATOM      6  C   UNL     1      26.648  27.112  20.536  1.00  0.00     0.029 A 
ATOM      7  C   UNL     1      25.481  26.384  20.551  1.00  0.00     0.002 A 
ATOM      8  C   UNL     1      24.431  26.673  19.714  1.00  0.00     0.002 A 
ATOM      9  C   UNL     1      24.522  27.711  18.828  1.00  0.00     0.028 A 
ATOM     10  C   UNL     1      25.678  28.456  18.792  1.00  0.00     0.068 A 
ATOM     11  N   UNL     1      25.851  29.511  17.931  1.00  0.00    -0.302 N 
ATOM     12  C   UNL     1      26.997  30.212  17.920  1.00  0.00     0.279 A 
ATOM     13  O   UNL     1      27.225  31.188  17.158  1.00  0.00    -0.267 OA
ATOM     14  C   UNL     1      28.024  29.883  18.781  1.00  0.00     0.158 A 
ENDROOT
BRANCH   1  15
ATOM     15  N   UNL     1      29.849  31.552  18.264  1.00  0.00    -0.200 N 
ATOM     16  C   UNL     1      31.676  33.182  15.580  1.00  0.00     0.070 C 
ATOM     17  C   UNL     1      30.895  32.790  16.790  1.00  0.00     0.080 A 
ATOM     18  C   UNL     1      30.541  31.507  17.111  1.00  0.00     0.142 A 
ATOM     19  N   UNL     1      30.419  33.588  17.743  1.00  0.00    -0.135 NA
ATOM     20  N   UNL     1      29.790  32.822  18.624  1.00  0.00    -0.061 NA
ENDBRANCH   1  15
BRANCH  11  21
ATOM     21  C   UNL     1      24.768  29.825  17.065  1.00  0.00     0.085 C 
ATOM     22  C   UNL     1      24.177  31.175  17.394  1.00  0.00     0.031 C 
ATOM     23  C   UNL     1      25.146  29.847  15.599  1.00  0.00     0.031 C 
ENDBRANCH  11  21
TORSDOF 2
BEGIN_RES LYS A 135
REMARK  4 active torsions:
REMARK  status: ('A' for Active; 'I' for Inactive)
REMARK    1  A    between atoms: CA   and  CB  
REMARK    2  A    between atoms: CB   and  CG  
REMARK    3  A    between atoms: CG   and  CD  
REMARK    4  A    between atoms: CD   and  CE  
ROOT
ATOM      1  CA  LYS A 135      33.193  34.663   9.290  1.00 25.02     0.186 C 
ENDROOT
BRANCH   1   2
ATOM      2  CB  LYS A 135      32.060  35.360  10.034  1.00 26.63     0.034 C 
BRANCH   2   3
ATOM      3  CG  LYS A 135      30.732  34.661   9.900  1.00 29.45     0.005 C 
BRANCH   3   4
ATOM      4  CD  LYS A 135      30.322  34.563   8.439  1.00 32.00     0.041 C 
BRANCH   4   5
ATOM      5  CE  LYS A 135      28.811  34.541   8.310  1.00 34.25     0.338 C 
ATOM      6  NZ  LYS A 135      28.185  33.822   9.455  1.00 35.99     0.618 N 
ENDBRANCH   4   5
ENDBRANCH   3   4
ENDBRANCH   2   3
ENDBRANCH   1   2
END_RES LYS A 135
BEGIN_RES TYR A 136
REMARK  2 active torsions:
REMARK  status: ('A' for Active; 'I' for Inactive)
REMARK    5  A    between atoms: CA   and  CB  
REMARK    6  A    between atoms: CB   and  CG  
ROOT
ATOM      7  CA  TYR A 136      36.583  36.399   8.994  1.00 26.14     0.191 C 
ENDROOT
BRANCH   7   8
ATOM      8  CB  TYR A 136      37.367  36.835  10.240  1.00 28.16     0.060 C 
BRANCH   8   9
ATOM      9  CG  TYR A 136      37.201  38.303  10.546  1.00 31.88    -0.020 A 
ATOM     10  CD2 TYR A 136      37.728  38.863  11.712  1.00 32.67    -0.002 A 
ATOM     11  CE2 TYR A 136      37.566  40.228  11.987  1.00 33.89     0.027 A 
ATOM     12  CZ  TYR A 136      36.871  41.040  11.088  1.00 34.34     0.131 A 
ATOM     13  OH  TYR A 136      36.705  42.395  11.336  1.00 35.14    -0.190 OA
ATOM     14  CE1 TYR A 136      36.340  40.500   9.925  1.00 35.01     0.027 A 
ATOM     15  CD1 TYR A 136      36.501  39.138   9.665  1.00 33.57    -0.002 A 
ENDBRANCH   8   9
ENDBRANCH   7   8
END_RES TYR A 136
BEGIN_RES ASN A 133
REMARK  2 active torsions:
REMARK  status: ('A' for Active; 'I' for Inactive)
REMARK    7  A    between atoms: CA   and  CB  
REMARK    8  A    between atoms: CB   and  CG  
ROOT
ATOM     16  CA  ASN A 133      31.225  30.257  11.749  1.00 18.15     0.196 C 
ENDROOT
BRANCH  16  17
ATOM     17  CB  ASN A 133      30.092  31.240  11.460  1.00 18.27     0.126 C 
BRANCH  17  18
ATOM     18  CG  ASN A 133      28.752  30.582  11.350  1.00 18.94     0.276 C 
ATOM     19  OD1 ASN A 133      28.581  29.598  10.627  1.00 18.09    -0.269 OA
ATOM     20  ND2 ASN A 133      27.774  31.126  12.073  1.00 18.93    -0.107 N 
ENDBRANCH  17  18
ENDBRANCH  16  17
END_RES ASN A 133
