REMARK VINA RESULT:    -4.757      2.657      5.421
REMARK INTER + INTRA:          -8.152
REMARK INTER:                  -5.189
REMARK INTRA:                  -2.963
REMARK UNBOUND:                -2.839
REMARK SMILES Cc1cn(-c2ncn3c2c(=O)n(C(C)C)c2ccccc23)nn1
REMARK SMILES IDX 5 1 6 2 7 3 8 4 21 5 20 6 19 7 18 8 17 9 16 10 12 11 10 12
REMARK SMILES IDX 11 13 9 14 4 15 1 16 2 17 3 18 23 19 22 20 13 21 14 22 15 23
REMARK H PARENT
REMARK Flexibility Score: inf
ROOT
ATOM      1  C   UNL     1      34.007  36.656  15.292  1.00  0.00     0.186 A 
ATOM      2  N   UNL     1      33.264  36.285  14.239  1.00  0.00    -0.216 NA
ATOM      3  C   UNL     1      33.955  35.467  13.428  1.00  0.00     0.207 A 
ATOM      4  N   UNL     1      35.184  35.312  13.986  1.00  0.00    -0.291 N 
ATOM      5  C   UNL     1      36.278  34.606  13.610  1.00  0.00     0.071 A 
ATOM      6  C   UNL     1      36.155  33.891  12.440  1.00  0.00     0.029 A 
ATOM      7  C   UNL     1      37.251  33.162  12.039  1.00  0.00     0.002 A 
ATOM      8  C   UNL     1      38.417  33.141  12.764  1.00  0.00     0.002 A 
ATOM      9  C   UNL     1      38.519  33.858  13.924  1.00  0.00     0.028 A 
ATOM     10  C   UNL     1      37.439  34.597  14.348  1.00  0.00     0.068 A 
ATOM     11  N   UNL     1      37.459  35.340  15.502  1.00  0.00    -0.302 N 
ATOM     12  C   UNL     1      36.381  36.044  15.888  1.00  0.00     0.279 A 
ATOM     13  O   UNL     1      36.327  36.744  16.932  1.00  0.00    -0.267 OA
ATOM     14  C   UNL     1      35.231  36.032  15.125  1.00  0.00     0.158 A 
ENDROOT
BRANCH   1  15
ATOM     15  N   UNL     1      33.622  37.525  16.376  1.00  0.00    -0.200 N 
ATOM     16  C   UNL     1      33.185  40.716  18.055  1.00  0.00     0.070 C 
ATOM     17  C   UNL     1      33.249  39.292  17.617  1.00  0.00     0.080 A 
ATOM     18  C   UNL     1      33.725  38.866  16.406  1.00  0.00     0.142 A 
ATOM     19  N   UNL     1      32.867  38.214  18.300  1.00  0.00    -0.135 NA
ATOM     20  N   UNL     1      33.101  37.157  17.533  1.00  0.00    -0.061 NA
ENDBRANCH   1  15
BRANCH  11  21
ATOM     21  C   UNL     1      38.663  35.333  16.257  1.00  0.00     0.085 C 
ATOM     22  C   UNL     1      39.265  36.715  16.340  1.00  0.00     0.031 C 
ATOM     23  C   UNL     1      38.490  34.834  17.676  1.00  0.00     0.031 C 
ENDBRANCH  11  21
TORSDOF 2
BEGIN_RES LYS A 135
REMARK  4 active torsions:
REMARK  status: ('A' for Active; 'I' for Inactive)
REMARK    1  A    between atoms: CA   and  CB  
REMARK    2  A    between atoms: CB   and  CG  
REMARK    3  A    between atoms: CG   and  CD  
REMARK    4  A    between atoms: CD   and  CE  
ROOT
ATOM      1  CA  LYS A 135      33.193  34.663   9.290  1.00 25.02     0.186 C 
ENDROOT
BRANCH   1   2
ATOM      2  CB  LYS A 135      32.060  35.360  10.034  1.00 26.63     0.034 C 
BRANCH   2   3
ATOM      3  CG  LYS A 135      30.815  35.539   9.204  1.00 29.45     0.005 C 
BRANCH   3   4
ATOM      4  CD  LYS A 135      30.183  34.193   8.887  1.00 32.00     0.041 C 
BRANCH   4   5
ATOM      5  CE  LYS A 135      28.705  34.355   8.589  1.00 34.25     0.338 C 
ATOM      6  NZ  LYS A 135      27.872  33.699   9.636  1.00 35.99     0.618 N 
ENDBRANCH   4   5
ENDBRANCH   3   4
ENDBRANCH   2   3
ENDBRANCH   1   2
END_RES LYS A 135
BEGIN_RES TYR A 136
REMARK  2 active torsions:
REMARK  status: ('A' for Active; 'I' for Inactive)
REMARK    5  A    between atoms: CA   and  CB  
REMARK    6  A    between atoms: CB   and  CG  
ROOT
ATOM      7  CA  TYR A 136      36.583  36.399   8.994  1.00 26.14     0.191 C 
ENDROOT
BRANCH   7   8
ATOM      8  CB  TYR A 136      37.367  36.835  10.240  1.00 28.16     0.060 C 
BRANCH   8   9
ATOM      9  CG  TYR A 136      36.700  37.970  10.978  1.00 31.88    -0.020 A 
ATOM     10  CD2 TYR A 136      36.702  38.025  12.373  1.00 32.67    -0.002 A 
ATOM     11  CE2 TYR A 136      36.078  39.083  13.049  1.00 33.89     0.027 A 
ATOM     12  CZ  TYR A 136      35.445  40.094  12.322  1.00 34.34     0.131 A 
ATOM     13  OH  TYR A 136      34.827  41.154  12.969  1.00 35.14    -0.190 OA
ATOM     14  CE1 TYR A 136      35.432  40.054  10.935  1.00 35.01     0.027 A 
ATOM     15  CD1 TYR A 136      36.052  38.992  10.273  1.00 33.57    -0.002 A 
ENDBRANCH   8   9
ENDBRANCH   7   8
END_RES TYR A 136
BEGIN_RES ASN A 133
REMARK  2 active torsions:
REMARK  status: ('A' for Active; 'I' for Inactive)
REMARK    7  A    between atoms: CA   and  CB  
REMARK    8  A    between atoms: CB   and  CG  
ROOT
ATOM     16  CA  ASN A 133      31.225  30.257  11.749  1.00 18.15     0.196 C 
ENDROOT
BRANCH  16  17
ATOM     17  CB  ASN A 133      30.092  31.240  11.460  1.00 18.27     0.126 C 
BRANCH  17  18
ATOM     18  CG  ASN A 133      28.750  30.584  11.363  1.00 18.94     0.276 C 
ATOM     19  OD1 ASN A 133      28.564  29.616  10.623  1.00 18.09    -0.269 OA
ATOM     20  ND2 ASN A 133      27.787  31.112  12.119  1.00 18.93    -0.107 N 
ENDBRANCH  17  18
ENDBRANCH  16  17
END_RES ASN A 133
