REMARK VINA RESULT:    -4.256      8.913     14.781
REMARK INTER + INTRA:          -9.126
REMARK INTER:                  -5.830
REMARK INTRA:                  -3.296
REMARK UNBOUND:                -3.626
REMARK SMILES Cc1cn(CCNC(=O)NCc2ccco2)nn1
REMARK SMILES IDX 7 1 8 2 9 3 10 4 6 7 5 8 4 9 1 10 2 11 3 12 18 13 17 14
REMARK SMILES IDX 11 15 12 16 13 17 16 18 14 19 15 20
REMARK H PARENT 7 5 10 6
REMARK Flexibility Score: inf
ROOT
ATOM      1  N   UNL     1      23.744  35.903  -0.871  1.00  0.00    -0.336 N 
ATOM      2  C   UNL     1      22.916  34.930  -0.247  1.00  0.00     0.315 C 
ATOM      3  O   UNL     1      21.686  35.049  -0.363  1.00  0.00    -0.249 OA
ATOM      4  N   UNL     1      23.476  33.840   0.498  1.00  0.00    -0.331 N 
ATOM      5  H   UNL     1      24.773  35.784  -0.762  1.00  0.00     0.165 HD
ATOM      6  H   UNL     1      24.515  33.793   0.559  1.00  0.00     0.165 HD
ENDROOT
BRANCH   1   7
ATOM      7  C   UNL     1      23.223  37.000  -1.621  1.00  0.00     0.141 C 
BRANCH   7   8
ATOM      8  C   UNL     1      23.875  37.191  -2.966  1.00  0.00     0.167 C 
BRANCH   8   9
ATOM      9  N   UNL     1      25.147  37.847  -2.738  1.00  0.00    -0.251 N 
ATOM     10  C   UNL     1      27.526  40.560  -2.414  1.00  0.00     0.070 C 
ATOM     11  C   UNL     1      26.776  39.299  -2.487  1.00  0.00     0.080 A 
ATOM     12  C   UNL     1      25.436  39.161  -2.766  1.00  0.00     0.134 A 
ATOM     13  N   UNL     1      27.274  38.072  -2.295  1.00  0.00    -0.136 NA
ATOM     14  N   UNL     1      26.277  37.226  -2.452  1.00  0.00    -0.067 NA
ENDBRANCH   8   9
ENDBRANCH   7   8
ENDBRANCH   1   7
BRANCH   4  15
ATOM     15  C   UNL     1      22.596  32.880   1.113  1.00  0.00     0.193 C 
BRANCH  15  16
ATOM     16  C   UNL     1      22.599  31.599   0.365  1.00  0.00     0.122 A 
ATOM     17  C   UNL     1      22.202  31.390  -0.936  1.00  0.00     0.047 A 
ATOM     18  O   UNL     1      22.995  30.421   0.838  1.00  0.00    -0.467 OA
ATOM     19  C   UNL     1      22.376  30.029  -1.223  1.00  0.00     0.042 A 
ATOM     20  C   UNL     1      22.875  29.500  -0.061  1.00  0.00     0.195 A 
ENDBRANCH  15  16
ENDBRANCH   4  15
TORSDOF 5
BEGIN_RES LYS A 135
REMARK  4 active torsions:
REMARK  status: ('A' for Active; 'I' for Inactive)
REMARK    1  A    between atoms: CA   and  CB  
REMARK    2  A    between atoms: CB   and  CG  
REMARK    3  A    between atoms: CG   and  CD  
REMARK    4  A    between atoms: CD   and  CE  
ROOT
ATOM      1  CA  LYS A 135      33.193  34.663   9.290  1.00 25.02     0.186 C 
ENDROOT
BRANCH   1   2
ATOM      2  CB  LYS A 135      32.060  35.360  10.034  1.00 26.63     0.034 C 
BRANCH   2   3
ATOM      3  CG  LYS A 135      30.909  35.754   9.145  1.00 29.45     0.005 C 
BRANCH   3   4
ATOM      4  CD  LYS A 135      30.524  34.607   8.224  1.00 32.00     0.041 C 
BRANCH   4   5
ATOM      5  CE  LYS A 135      29.287  34.960   7.421  1.00 34.25     0.338 C 
ATOM      6  NZ  LYS A 135      28.098  35.111   8.305  1.00 35.99     0.618 N 
ENDBRANCH   4   5
ENDBRANCH   3   4
ENDBRANCH   2   3
ENDBRANCH   1   2
END_RES LYS A 135
BEGIN_RES TYR A 136
REMARK  2 active torsions:
REMARK  status: ('A' for Active; 'I' for Inactive)
REMARK    5  A    between atoms: CA   and  CB  
REMARK    6  A    between atoms: CB   and  CG  
ROOT
ATOM      7  CA  TYR A 136      36.583  36.399   8.994  1.00 26.14     0.191 C 
ENDROOT
BRANCH   7   8
ATOM      8  CB  TYR A 136      37.367  36.835  10.240  1.00 28.16     0.060 C 
BRANCH   8   9
ATOM      9  CG  TYR A 136      37.206  38.305  10.542  1.00 31.88    -0.020 A 
ATOM     10  CD2 TYR A 136      36.066  38.790  11.185  1.00 32.67    -0.002 A 
ATOM     11  CE2 TYR A 136      35.926  40.158  11.460  1.00 33.89     0.027 A 
ATOM     12  CZ  TYR A 136      36.936  41.047  11.086  1.00 34.34     0.131 A 
ATOM     13  OH  TYR A 136      36.822  42.404  11.353  1.00 35.14    -0.190 OA
ATOM     14  CE1 TYR A 136      38.075  40.582  10.444  1.00 35.01     0.027 A 
ATOM     15  CD1 TYR A 136      38.200  39.219  10.171  1.00 33.57    -0.002 A 
ENDBRANCH   8   9
ENDBRANCH   7   8
END_RES TYR A 136
BEGIN_RES ASN A 133
REMARK  2 active torsions:
REMARK  status: ('A' for Active; 'I' for Inactive)
REMARK    7  A    between atoms: CA   and  CB  
REMARK    8  A    between atoms: CB   and  CG  
ROOT
ATOM     16  CA  ASN A 133      31.225  30.257  11.749  1.00 18.15     0.196 C 
ENDROOT
BRANCH  16  17
ATOM     17  CB  ASN A 133      30.092  31.240  11.460  1.00 18.27     0.126 C 
BRANCH  17  18
ATOM     18  CG  ASN A 133      28.754  30.580  11.330  1.00 18.94     0.276 C 
ATOM     19  OD1 ASN A 133      28.586  29.623  10.571  1.00 18.09    -0.269 OA
ATOM     20  ND2 ASN A 133      27.777  31.091  12.078  1.00 18.93    -0.107 N 
ENDBRANCH  17  18
ENDBRANCH  16  17
END_RES ASN A 133
