REMARK VINA RESULT:    -4.387      2.048      4.893
REMARK INTER + INTRA:          -8.930
REMARK INTER:                  -5.665
REMARK INTRA:                  -3.265
REMARK UNBOUND:                -3.516
REMARK SMILES Cc1cn(C(C)CC(=O)c2ccccc2)nn1
REMARK SMILES IDX 7 1 5 2 6 3 4 4 1 5 2 6 3 7 17 8 16 9 8 10 9 11 10 12 11 13
REMARK SMILES IDX 15 14 12 15 14 16 13 17
REMARK H PARENT
REMARK Flexibility Score: inf
ROOT
ATOM      1  C   UNL     1      35.187  35.623  13.739  1.00  0.00     0.108 C 
ENDROOT
BRANCH   1   2
ATOM      2  C   UNL     1      33.981  35.771  12.887  1.00  0.00     0.114 C 
ATOM      3  C   UNL     1      33.644  37.143  12.460  1.00  0.00     0.034 C 
BRANCH   2   4
ATOM      4  N   UNL     1      32.860  35.151  13.571  1.00  0.00    -0.249 N 
ATOM      5  C   UNL     1      31.525  33.298  16.394  1.00  0.00     0.070 C 
ATOM      6  C   UNL     1      31.766  34.042  15.147  1.00  0.00     0.080 A 
ATOM      7  C   UNL     1      32.998  34.524  14.754  1.00  0.00     0.134 A 
ATOM      8  N   UNL     1      30.911  34.401  14.172  1.00  0.00    -0.136 NA
ATOM      9  N   UNL     1      31.598  35.063  13.245  1.00  0.00    -0.067 NA
ENDBRANCH   2   4
ENDBRANCH   1   2
BRANCH   1  10
ATOM     10  C   UNL     1      36.231  34.744  13.193  1.00  0.00     0.164 C 
ATOM     11  O   UNL     1      36.019  33.754  12.467  1.00  0.00    -0.294 OA
BRANCH  10  12
ATOM     12  C   UNL     1      37.616  35.055  13.526  1.00  0.00     0.018 A 
ATOM     13  C   UNL     1      37.956  35.824  14.635  1.00  0.00     0.012 A 
ATOM     14  C   UNL     1      38.688  34.607  12.764  1.00  0.00     0.012 A 
ATOM     15  C   UNL     1      39.264  36.124  14.956  1.00  0.00     0.001 A 
ATOM     16  C   UNL     1      39.990  34.879  13.046  1.00  0.00     0.001 A 
ATOM     17  C   UNL     1      40.286  35.643  14.150  1.00  0.00     0.000 A 
ENDBRANCH  10  12
ENDBRANCH   1  10
TORSDOF 4
BEGIN_RES LYS A 135
REMARK  4 active torsions:
REMARK  status: ('A' for Active; 'I' for Inactive)
REMARK    1  A    between atoms: CA   and  CB  
REMARK    2  A    between atoms: CB   and  CG  
REMARK    3  A    between atoms: CG   and  CD  
REMARK    4  A    between atoms: CD   and  CE  
ROOT
ATOM      1  CA  LYS A 135      33.193  34.663   9.290  1.00 25.02     0.186 C 
ENDROOT
BRANCH   1   2
ATOM      2  CB  LYS A 135      32.060  35.360  10.034  1.00 26.63     0.034 C 
BRANCH   2   3
ATOM      3  CG  LYS A 135      30.710  34.732   9.801  1.00 29.45     0.005 C 
BRANCH   3   4
ATOM      4  CD  LYS A 135      30.436  34.586   8.313  1.00 32.00     0.041 C 
BRANCH   4   5
ATOM      5  CE  LYS A 135      29.426  35.620   7.853  1.00 34.25     0.338 C 
ATOM      6  NZ  LYS A 135      28.080  35.011   7.668  1.00 35.99     0.618 N 
ENDBRANCH   4   5
ENDBRANCH   3   4
ENDBRANCH   2   3
ENDBRANCH   1   2
END_RES LYS A 135
BEGIN_RES TYR A 136
REMARK  2 active torsions:
REMARK  status: ('A' for Active; 'I' for Inactive)
REMARK    5  A    between atoms: CA   and  CB  
REMARK    6  A    between atoms: CB   and  CG  
ROOT
ATOM      7  CA  TYR A 136      36.583  36.399   8.994  1.00 26.14     0.191 C 
ENDROOT
BRANCH   7   8
ATOM      8  CB  TYR A 136      37.367  36.835  10.240  1.00 28.16     0.060 C 
BRANCH   8   9
ATOM      9  CG  TYR A 136      36.823  38.101  10.854  1.00 31.88    -0.020 A 
ATOM     10  CD2 TYR A 136      35.995  38.960  10.127  1.00 32.67    -0.002 A 
ATOM     11  CE2 TYR A 136      35.496  40.134  10.707  1.00 33.89     0.027 A 
ATOM     12  CZ  TYR A 136      35.829  40.453  12.025  1.00 34.34     0.131 A 
ATOM     13  OH  TYR A 136      35.341  41.608  12.622  1.00 35.14    -0.190 OA
ATOM     14  CE1 TYR A 136      36.652  39.613  12.761  1.00 35.01     0.027 A 
ATOM     15  CD1 TYR A 136      37.148  38.449  12.172  1.00 33.57    -0.002 A 
ENDBRANCH   8   9
ENDBRANCH   7   8
END_RES TYR A 136
BEGIN_RES ASN A 133
REMARK  2 active torsions:
REMARK  status: ('A' for Active; 'I' for Inactive)
REMARK    7  A    between atoms: CA   and  CB  
REMARK    8  A    between atoms: CB   and  CG  
ROOT
ATOM     16  CA  ASN A 133      31.225  30.257  11.749  1.00 18.15     0.196 C 
ENDROOT
BRANCH  16  17
ATOM     17  CB  ASN A 133      30.092  31.240  11.460  1.00 18.27     0.126 C 
BRANCH  17  18
ATOM     18  CG  ASN A 133      28.754  30.580  11.334  1.00 18.94     0.276 C 
ATOM     19  OD1 ASN A 133      28.599  29.579  10.632  1.00 18.09    -0.269 OA
ATOM     20  ND2 ASN A 133      27.760  31.142  12.021  1.00 18.93    -0.107 N 
ENDBRANCH  17  18
ENDBRANCH  16  17
END_RES ASN A 133
