REMARK VINA RESULT:    -4.715      3.292      5.041
REMARK INTER + INTRA:          -8.893
REMARK INTER:                  -5.656
REMARK INTRA:                  -3.237
REMARK UNBOUND:                -3.214
REMARK SMILES Cc1cn(-c2cccc(C=CC(=O)O)c2)nn1
REMARK SMILES IDX 10 1 11 2 9 3 5 4 15 5 6 6 7 7 8 8 4 9 1 10 2 11 3 12 17 13
REMARK SMILES IDX 16 14 12 15 13 16 14 17
REMARK H PARENT 14 18
REMARK Flexibility Score: inf
ROOT
ATOM      1  C   UNL     1      34.440  35.929  14.114  1.00  0.00     0.015 C 
ATOM      2  C   UNL     1      33.328  35.745  14.678  1.00  0.00     0.094 C 
ENDROOT
BRANCH   1   3
ATOM      3  C   UNL     1      35.609  35.130  13.929  1.00  0.00    -0.023 A 
ATOM      4  C   UNL     1      37.865  34.399  14.400  1.00  0.00     0.067 A 
ATOM      5  C   UNL     1      36.727  35.155  14.710  1.00  0.00     0.036 A 
ATOM      6  C   UNL     1      37.840  33.612  13.276  1.00  0.00     0.028 A 
ATOM      7  C   UNL     1      36.719  33.569  12.475  1.00  0.00     0.003 A 
ATOM      8  C   UNL     1      35.616  34.307  12.781  1.00  0.00     0.008 A 
BRANCH   4   9
ATOM      9  N   UNL     1      39.011  34.458  15.239  1.00  0.00    -0.220 N 
ATOM     10  C   UNL     1      42.553  35.106  16.044  1.00  0.00     0.070 C 
ATOM     11  C   UNL     1      41.101  34.774  15.969  1.00  0.00     0.080 A 
ATOM     12  C   UNL     1      40.258  34.855  14.880  1.00  0.00     0.140 A 
ATOM     13  N   UNL     1      40.318  34.321  16.975  1.00  0.00    -0.135 NA
ATOM     14  N   UNL     1      39.084  34.137  16.530  1.00  0.00    -0.062 NA
ENDBRANCH   4   9
ENDBRANCH   1   3
BRANCH   2  15
ATOM     15  C   UNL     1      32.690  34.705  15.395  1.00  0.00     0.328 C 
ATOM     16  O   UNL     1      32.362  34.672  16.597  1.00  0.00    -0.247 OA
BRANCH  15  17
ATOM     17  O   UNL     1      32.351  33.496  14.687  1.00  0.00    -0.478 OA
ATOM     18  H   UNL     1      32.228  33.606  13.679  1.00  0.00     0.297 HD
ENDBRANCH  15  17
ENDBRANCH   2  15
TORSDOF 4
BEGIN_RES LYS A 135
REMARK  4 active torsions:
REMARK  status: ('A' for Active; 'I' for Inactive)
REMARK    1  A    between atoms: CA   and  CB  
REMARK    2  A    between atoms: CB   and  CG  
REMARK    3  A    between atoms: CG   and  CD  
REMARK    4  A    between atoms: CD   and  CE  
ROOT
ATOM      1  CA  LYS A 135      33.193  34.663   9.290  1.00 25.02     0.186 C 
ENDROOT
BRANCH   1   2
ATOM      2  CB  LYS A 135      32.060  35.360  10.034  1.00 26.63     0.034 C 
BRANCH   2   3
ATOM      3  CG  LYS A 135      30.791  35.473   9.230  1.00 29.45     0.005 C 
BRANCH   3   4
ATOM      4  CD  LYS A 135      30.055  34.142   9.199  1.00 32.00     0.041 C 
BRANCH   4   5
ATOM      5  CE  LYS A 135      28.627  34.334   8.724  1.00 34.25     0.338 C 
ATOM      6  NZ  LYS A 135      27.667  33.613   9.604  1.00 35.99     0.618 N 
ENDBRANCH   4   5
ENDBRANCH   3   4
ENDBRANCH   2   3
ENDBRANCH   1   2
END_RES LYS A 135
BEGIN_RES TYR A 136
REMARK  2 active torsions:
REMARK  status: ('A' for Active; 'I' for Inactive)
REMARK    5  A    between atoms: CA   and  CB  
REMARK    6  A    between atoms: CB   and  CG  
ROOT
ATOM      7  CA  TYR A 136      36.583  36.399   8.994  1.00 26.14     0.191 C 
ENDROOT
BRANCH   7   8
ATOM      8  CB  TYR A 136      37.367  36.835  10.240  1.00 28.16     0.060 C 
BRANCH   8   9
ATOM      9  CG  TYR A 136      36.665  37.922  11.017  1.00 31.88    -0.020 A 
ATOM     10  CD2 TYR A 136      35.746  38.774  10.399  1.00 32.67    -0.002 A 
ATOM     11  CE2 TYR A 136      35.101  39.781  11.129  1.00 33.89     0.027 A 
ATOM     12  CZ  TYR A 136      35.377  39.938  12.489  1.00 34.34     0.131 A 
ATOM     13  OH  TYR A 136      34.744  40.924  13.233  1.00 35.14    -0.190 OA
ATOM     14  CE1 TYR A 136      36.288  39.101  13.119  1.00 35.01     0.027 A 
ATOM     15  CD1 TYR A 136      36.929  38.105  12.380  1.00 33.57    -0.002 A 
ENDBRANCH   8   9
ENDBRANCH   7   8
END_RES TYR A 136
BEGIN_RES ASN A 133
REMARK  2 active torsions:
REMARK  status: ('A' for Active; 'I' for Inactive)
REMARK    7  A    between atoms: CA   and  CB  
REMARK    8  A    between atoms: CB   and  CG  
ROOT
ATOM     16  CA  ASN A 133      31.225  30.257  11.749  1.00 18.15     0.196 C 
ENDROOT
BRANCH  16  17
ATOM     17  CB  ASN A 133      30.092  31.240  11.460  1.00 18.27     0.126 C 
BRANCH  17  18
ATOM     18  CG  ASN A 133      28.750  30.584  11.364  1.00 18.94     0.276 C 
ATOM     19  OD1 ASN A 133      28.564  29.617  10.623  1.00 18.09    -0.269 OA
ATOM     20  ND2 ASN A 133      27.788  31.111  12.120  1.00 18.93    -0.107 N 
ENDBRANCH  17  18
ENDBRANCH  16  17
END_RES ASN A 133
