REMARK VINA RESULT:    -4.847      3.125      4.440
REMARK INTER + INTRA:          -9.501
REMARK INTER:                  -5.917
REMARK INTRA:                  -3.584
REMARK UNBOUND:                -3.238
REMARK SMILES Cc1cn([C@@H](C)C(=O)OCc2ccccc2)nn1
REMARK SMILES IDX 7 1 8 2 5 3 6 4 4 5 1 6 2 7 3 8 18 9 17 10 9 11 10 12 11 13
REMARK SMILES IDX 12 14 16 15 13 16 15 17 14 18
REMARK H PARENT
REMARK Flexibility Score: inf
ROOT
ATOM      1  C   UNL     1      36.958  33.919  13.147  1.00  0.00     0.331 C 
ATOM      2  O   UNL     1      36.904  33.422  11.991  1.00  0.00    -0.250 OA
ENDROOT
BRANCH   1   3
ATOM      3  C   UNL     1      38.222  33.864  13.958  1.00  0.00     0.215 C 
ATOM      4  C   UNL     1      38.102  34.639  15.237  1.00  0.00     0.046 C 
BRANCH   3   5
ATOM      5  N   UNL     1      39.266  34.484  13.166  1.00  0.00    -0.238 N 
ATOM      6  C   UNL     1      41.091  36.992  11.320  1.00  0.00     0.070 C 
ATOM      7  C   UNL     1      40.552  35.804  12.011  1.00  0.00     0.080 A 
ATOM      8  C   UNL     1      39.385  35.719  12.698  1.00  0.00     0.135 A 
ATOM      9  N   UNL     1      41.147  34.607  12.062  1.00  0.00    -0.136 NA
ATOM     10  N   UNL     1      40.345  33.817  12.771  1.00  0.00    -0.066 NA
ENDBRANCH   3   5
ENDBRANCH   1   3
BRANCH   1  11
ATOM     11  O   UNL     1      35.807  34.507  13.620  1.00  0.00    -0.459 OA
BRANCH  11  12
ATOM     12  C   UNL     1      34.832  35.170  12.855  1.00  0.00     0.268 C 
BRANCH  12  13
ATOM     13  C   UNL     1      34.733  36.614  13.082  1.00  0.00    -0.011 A 
ATOM     14  C   UNL     1      33.885  37.411  12.347  1.00  0.00     0.007 A 
ATOM     15  C   UNL     1      35.494  37.219  14.054  1.00  0.00     0.007 A 
ATOM     16  C   UNL     1      33.779  38.773  12.553  1.00  0.00     0.000 A 
ATOM     17  C   UNL     1      35.419  38.592  14.297  1.00  0.00     0.000 A 
ATOM     18  C   UNL     1      34.548  39.345  13.524  1.00  0.00     0.000 A 
ENDBRANCH  12  13
ENDBRANCH  11  12
ENDBRANCH   1  11
TORSDOF 5
BEGIN_RES LYS A 135
REMARK  4 active torsions:
REMARK  status: ('A' for Active; 'I' for Inactive)
REMARK    1  A    between atoms: CA   and  CB  
REMARK    2  A    between atoms: CB   and  CG  
REMARK    3  A    between atoms: CG   and  CD  
REMARK    4  A    between atoms: CD   and  CE  
ROOT
ATOM      1  CA  LYS A 135      33.193  34.663   9.290  1.00 25.02     0.186 C 
ENDROOT
BRANCH   1   2
ATOM      2  CB  LYS A 135      32.060  35.360  10.034  1.00 26.63     0.034 C 
BRANCH   2   3
ATOM      3  CG  LYS A 135      30.695  34.816   9.700  1.00 29.45     0.005 C 
BRANCH   3   4
ATOM      4  CD  LYS A 135      30.597  34.485   8.218  1.00 32.00     0.041 C 
BRANCH   4   5
ATOM      5  CE  LYS A 135      29.349  35.102   7.617  1.00 34.25     0.338 C 
ATOM      6  NZ  LYS A 135      29.310  36.572   7.851  1.00 35.99     0.618 N 
ENDBRANCH   4   5
ENDBRANCH   3   4
ENDBRANCH   2   3
ENDBRANCH   1   2
END_RES LYS A 135
BEGIN_RES TYR A 136
REMARK  2 active torsions:
REMARK  status: ('A' for Active; 'I' for Inactive)
REMARK    5  A    between atoms: CA   and  CB  
REMARK    6  A    between atoms: CB   and  CG  
ROOT
ATOM      7  CA  TYR A 136      36.583  36.399   8.994  1.00 26.14     0.191 C 
ENDROOT
BRANCH   7   8
ATOM      8  CB  TYR A 136      37.367  36.835  10.240  1.00 28.16     0.060 C 
BRANCH   8   9
ATOM      9  CG  TYR A 136      37.177  38.297  10.563  1.00 31.88    -0.020 A 
ATOM     10  CD2 TYR A 136      37.911  38.914  11.578  1.00 32.67    -0.002 A 
ATOM     11  CE2 TYR A 136      37.726  40.272  11.871  1.00 33.89     0.027 A 
ATOM     12  CZ  TYR A 136      36.797  41.019  11.142  1.00 34.34     0.131 A 
ATOM     13  OH  TYR A 136      36.602  42.367  11.411  1.00 35.14    -0.190 OA
ATOM     14  CE1 TYR A 136      36.059  40.421  10.131  1.00 35.01     0.027 A 
ATOM     15  CD1 TYR A 136      36.247  39.067   9.853  1.00 33.57    -0.002 A 
ENDBRANCH   8   9
ENDBRANCH   7   8
END_RES TYR A 136
BEGIN_RES ASN A 133
REMARK  2 active torsions:
REMARK  status: ('A' for Active; 'I' for Inactive)
REMARK    7  A    between atoms: CA   and  CB  
REMARK    8  A    between atoms: CB   and  CG  
ROOT
ATOM     16  CA  ASN A 133      31.225  30.257  11.749  1.00 18.15     0.196 C 
ENDROOT
BRANCH  16  17
ATOM     17  CB  ASN A 133      30.092  31.240  11.460  1.00 18.27     0.126 C 
BRANCH  17  18
ATOM     18  CG  ASN A 133      28.751  30.582  11.353  1.00 18.94     0.276 C 
ATOM     19  OD1 ASN A 133      28.575  29.605  10.623  1.00 18.09    -0.269 OA
ATOM     20  ND2 ASN A 133      27.778  31.120  12.089  1.00 18.93    -0.107 N 
ENDBRANCH  17  18
ENDBRANCH  16  17
END_RES ASN A 133
