REMARK VINA RESULT:    -4.137      3.663      5.671
REMARK INTER + INTRA:          -8.092
REMARK INTER:                  -5.265
REMARK INTRA:                  -2.827
REMARK UNBOUND:                -3.109
REMARK SMILES Cc1cn(Cc2ccc(C(=O)O)cc2)nn1
REMARK SMILES IDX 6 1 7 2 8 3 9 4 13 5 14 6 5 7 4 8 1 9 2 10 3 11 16 12 15 13
REMARK SMILES IDX 10 14 11 15 12 16
REMARK H PARENT 12 17
REMARK Flexibility Score: inf
ROOT
ATOM      1  C   UNL     1      30.384  31.879  18.853  1.00  0.00    -0.026 A 
ATOM      2  C   UNL     1      30.144  31.112  17.740  1.00  0.00     0.006 A 
ATOM      3  C   UNL     1      30.478  31.605  16.499  1.00  0.00     0.016 A 
ATOM      4  C   UNL     1      31.049  32.845  16.306  1.00  0.00     0.059 A 
ATOM      5  C   UNL     1      31.270  33.579  17.458  1.00  0.00     0.016 A 
ATOM      6  C   UNL     1      30.948  33.114  18.711  1.00  0.00     0.006 A 
ENDROOT
BRANCH   1   7
ATOM      7  C   UNL     1      30.039  31.389  20.219  1.00  0.00     0.181 C 
BRANCH   7   8
ATOM      8  N   UNL     1      31.119  30.535  20.690  1.00  0.00    -0.248 N 
ATOM      9  C   UNL     1      34.261  29.784  22.459  1.00  0.00     0.070 C 
ATOM     10  C   UNL     1      32.994  29.862  21.693  1.00  0.00     0.080 A 
ATOM     11  C   UNL     1      32.181  30.936  21.439  1.00  0.00     0.134 A 
ATOM     12  N   UNL     1      32.400  28.814  21.085  1.00  0.00    -0.136 NA
ATOM     13  N   UNL     1      31.289  29.239  20.495  1.00  0.00    -0.067 NA
ENDBRANCH   7   8
ENDBRANCH   1   7
BRANCH   4  14
ATOM     14  C   UNL     1      31.393  33.345  14.982  1.00  0.00     0.335 C 
ATOM     15  O   UNL     1      30.456  33.506  14.163  1.00  0.00    -0.246 OA
BRANCH  14  16
ATOM     16  O   UNL     1      32.671  33.643  14.591  1.00  0.00    -0.478 OA
ATOM     17  H   UNL     1      33.416  32.951  14.485  1.00  0.00     0.297 HD
ENDBRANCH  14  16
ENDBRANCH   4  14
TORSDOF 4
BEGIN_RES LYS A 135
REMARK  4 active torsions:
REMARK  status: ('A' for Active; 'I' for Inactive)
REMARK    1  A    between atoms: CA   and  CB  
REMARK    2  A    between atoms: CB   and  CG  
REMARK    3  A    between atoms: CG   and  CD  
REMARK    4  A    between atoms: CD   and  CE  
ROOT
ATOM      1  CA  LYS A 135      33.193  34.663   9.290  1.00 25.02     0.186 C 
ENDROOT
BRANCH   1   2
ATOM      2  CB  LYS A 135      32.060  35.360  10.034  1.00 26.63     0.034 C 
BRANCH   2   3
ATOM      3  CG  LYS A 135      30.844  35.613   9.180  1.00 29.45     0.005 C 
BRANCH   3   4
ATOM      4  CD  LYS A 135      30.317  34.311   8.598  1.00 32.00     0.041 C 
BRANCH   4   5
ATOM      5  CE  LYS A 135      28.969  33.965   9.201  1.00 34.25     0.338 C 
ATOM      6  NZ  LYS A 135      27.858  34.572   8.416  1.00 35.99     0.618 N 
ENDBRANCH   4   5
ENDBRANCH   3   4
ENDBRANCH   2   3
ENDBRANCH   1   2
END_RES LYS A 135
BEGIN_RES TYR A 136
REMARK  2 active torsions:
REMARK  status: ('A' for Active; 'I' for Inactive)
REMARK    5  A    between atoms: CA   and  CB  
REMARK    6  A    between atoms: CB   and  CG  
ROOT
ATOM      7  CA  TYR A 136      36.583  36.399   8.994  1.00 26.14     0.191 C 
ENDROOT
BRANCH   7   8
ATOM      8  CB  TYR A 136      37.367  36.835  10.240  1.00 28.16     0.060 C 
BRANCH   8   9
ATOM      9  CG  TYR A 136      36.621  36.557  11.522  1.00 31.88    -0.020 A 
ATOM     10  CD2 TYR A 136      35.624  37.421  11.980  1.00 32.67    -0.002 A 
ATOM     11  CE2 TYR A 136      34.938  37.155  13.173  1.00 33.89     0.027 A 
ATOM     12  CZ  TYR A 136      35.253  36.013  13.914  1.00 34.34     0.131 A 
ATOM     13  OH  TYR A 136      34.581  35.726  15.094  1.00 35.14    -0.190 OA
ATOM     14  CE1 TYR A 136      36.241  35.145  13.474  1.00 35.01     0.027 A 
ATOM     15  CD1 TYR A 136      36.922  35.424  12.288  1.00 33.57    -0.002 A 
ENDBRANCH   8   9
ENDBRANCH   7   8
END_RES TYR A 136
BEGIN_RES ASN A 133
REMARK  2 active torsions:
REMARK  status: ('A' for Active; 'I' for Inactive)
REMARK    7  A    between atoms: CA   and  CB  
REMARK    8  A    between atoms: CB   and  CG  
ROOT
ATOM     16  CA  ASN A 133      31.225  30.257  11.749  1.00 18.15     0.196 C 
ENDROOT
BRANCH  16  17
ATOM     17  CB  ASN A 133      30.092  31.240  11.460  1.00 18.27     0.126 C 
BRANCH  17  18
ATOM     18  CG  ASN A 133      28.752  30.581  11.346  1.00 18.94     0.276 C 
ATOM     19  OD1 ASN A 133      28.582  29.602  10.617  1.00 18.09    -0.269 OA
ATOM     20  ND2 ASN A 133      27.774  31.120  12.073  1.00 18.93    -0.107 N 
ENDBRANCH  17  18
ENDBRANCH  16  17
END_RES ASN A 133
