REMARK VINA RESULT:    -3.159      2.886      4.329
REMARK INTER + INTRA:          -6.768
REMARK INTER:                  -3.731
REMARK INTRA:                  -3.037
REMARK UNBOUND:                -3.239
REMARK SMILES Cc1cn(Cc2ccc(Br)cc2)nn1
REMARK SMILES IDX 5 1 4 2 1 3 2 4 3 5 14 6 13 7 6 8 7 9 12 10 8 11 11 12 9 13
REMARK SMILES IDX 10 14
REMARK H PARENT
REMARK Flexibility Score: inf
ROOT
ATOM      1  C   UNL     1      32.756  35.973  13.729  1.00  0.00     0.181 C 
ENDROOT
BRANCH   1   2
ATOM      2  N   UNL     1      31.527  35.170  13.727  1.00  0.00    -0.248 N 
ATOM      3  C   UNL     1      28.605  33.470  15.189  1.00  0.00     0.070 C 
ATOM      4  C   UNL     1      29.701  34.066  14.347  1.00  0.00     0.080 A 
ATOM      5  C   UNL     1      30.770  34.826  14.785  1.00  0.00     0.134 A 
ATOM      6  N   UNL     1      29.855  33.979  13.016  1.00  0.00    -0.136 NA
ATOM      7  N   UNL     1      30.943  34.641  12.678  1.00  0.00    -0.067 NA
ENDBRANCH   1   2
BRANCH   1   8
ATOM      8  C   UNL     1      32.525  37.226  12.977  1.00  0.00    -0.026 A 
ATOM      9  C   UNL     1      32.844  37.278  11.643  1.00  0.00     0.007 A 
ATOM     10  C   UNL     1      31.997  38.338  13.590  1.00  0.00     0.007 A 
ATOM     11  C   UNL     1      32.619  38.456  10.968  1.00  0.00     0.016 A 
ATOM     12  C   UNL     1      31.779  39.521  12.880  1.00  0.00     0.016 A 
ATOM     13  C   UNL     1      32.094  39.591  11.542  1.00  0.00     0.017 A 
ATOM     14  Br  UNL     1      31.783  41.216  10.612  1.00  0.00    -0.051 Br
ENDBRANCH   1   8
TORSDOF 2
BEGIN_RES LYS A 135
REMARK  4 active torsions:
REMARK  status: ('A' for Active; 'I' for Inactive)
REMARK    1  A    between atoms: CA   and  CB  
REMARK    2  A    between atoms: CB   and  CG  
REMARK    3  A    between atoms: CG   and  CD  
REMARK    4  A    between atoms: CD   and  CE  
ROOT
ATOM      1  CA  LYS A 135      33.193  34.663   9.290  1.00 25.02     0.186 C 
ENDROOT
BRANCH   1   2
ATOM      2  CB  LYS A 135      32.060  35.360  10.034  1.00 26.63     0.034 C 
BRANCH   2   3
ATOM      3  CG  LYS A 135      30.834  35.587   9.188  1.00 29.45     0.005 C 
BRANCH   3   4
ATOM      4  CD  LYS A 135      30.283  34.265   8.676  1.00 32.00     0.041 C 
BRANCH   4   5
ATOM      5  CE  LYS A 135      28.885  34.026   9.213  1.00 34.25     0.338 C 
ATOM      6  NZ  LYS A 135      27.858  34.640   8.326  1.00 35.99     0.618 N 
ENDBRANCH   4   5
ENDBRANCH   3   4
ENDBRANCH   2   3
ENDBRANCH   1   2
END_RES LYS A 135
BEGIN_RES TYR A 136
REMARK  2 active torsions:
REMARK  status: ('A' for Active; 'I' for Inactive)
REMARK    5  A    between atoms: CA   and  CB  
REMARK    6  A    between atoms: CB   and  CG  
ROOT
ATOM      7  CA  TYR A 136      36.583  36.399   8.994  1.00 26.14     0.191 C 
ENDROOT
BRANCH   7   8
ATOM      8  CB  TYR A 136      37.367  36.835  10.240  1.00 28.16     0.060 C 
BRANCH   8   9
ATOM      9  CG  TYR A 136      36.744  38.022  10.932  1.00 31.88    -0.020 A 
ATOM     10  CD2 TYR A 136      36.401  39.175  10.221  1.00 32.67    -0.002 A 
ATOM     11  CE2 TYR A 136      35.824  40.273  10.874  1.00 33.89     0.027 A 
ATOM     12  CZ  TYR A 136      35.588  40.218  12.249  1.00 34.34     0.131 A 
ATOM     13  OH  TYR A 136      35.011  41.291  12.915  1.00 35.14    -0.190 OA
ATOM     14  CE1 TYR A 136      35.924  39.081  12.971  1.00 35.01     0.027 A 
ATOM     15  CD1 TYR A 136      36.504  37.996  12.311  1.00 33.57    -0.002 A 
ENDBRANCH   8   9
ENDBRANCH   7   8
END_RES TYR A 136
BEGIN_RES ASN A 133
REMARK  2 active torsions:
REMARK  status: ('A' for Active; 'I' for Inactive)
REMARK    7  A    between atoms: CA   and  CB  
REMARK    8  A    between atoms: CB   and  CG  
ROOT
ATOM     16  CA  ASN A 133      31.225  30.257  11.749  1.00 18.15     0.196 C 
ENDROOT
BRANCH  16  17
ATOM     17  CB  ASN A 133      30.092  31.240  11.460  1.00 18.27     0.126 C 
BRANCH  17  18
ATOM     18  CG  ASN A 133      28.759  30.576  11.300  1.00 18.94     0.276 C 
ATOM     19  OD1 ASN A 133      28.621  29.588  10.578  1.00 18.09    -0.269 OA
ATOM     20  ND2 ASN A 133      27.752  31.122  11.981  1.00 18.93    -0.107 N 
ENDBRANCH  17  18
ENDBRANCH  16  17
END_RES ASN A 133
