REMARK VINA RESULT:    -2.849      7.077      8.581
REMARK INTER + INTRA:          -6.264
REMARK INTER:                  -3.016
REMARK INTRA:                  -3.249
REMARK UNBOUND:                -3.249
REMARK SMILES Cc1cn(C2CCN(C)CC2)nn1
REMARK SMILES IDX 5 1 6 2 7 3 8 4 9 5 10 6 11 7 4 8 1 9 2 10 3 11 13 12 12 13
REMARK H PARENT
REMARK Flexibility Score: inf
ROOT
ATOM      1  C   UNL     1      31.812  39.334  -3.711  1.00  0.00     0.111 C 
ATOM      2  C   UNL     1      32.644  38.116  -3.978  1.00  0.00     0.043 C 
ATOM      3  C   UNL     1      33.636  38.487  -5.082  1.00  0.00     0.086 C 
ATOM      4  N   UNL     1      34.344  39.629  -4.640  1.00  0.00    -0.306 NA
ATOM      5  C   UNL     1      35.697  39.735  -5.014  1.00  0.00     0.105 C 
ATOM      6  C   UNL     1      33.606  40.824  -4.513  1.00  0.00     0.086 C 
ATOM      7  C   UNL     1      32.116  40.481  -4.637  1.00  0.00     0.043 C 
ENDROOT
BRANCH   1   8
ATOM      8  N   UNL     1      30.420  38.956  -3.862  1.00  0.00    -0.249 N 
ATOM      9  C   UNL     1      27.340  38.522  -5.684  1.00  0.00     0.070 C 
ATOM     10  C   UNL     1      28.445  38.588  -4.699  1.00  0.00     0.080 A 
ATOM     11  C   UNL     1      29.708  39.044  -4.983  1.00  0.00     0.134 A 
ATOM     12  N   UNL     1      28.426  38.232  -3.407  1.00  0.00    -0.136 NA
ATOM     13  N   UNL     1      29.632  38.468  -2.934  1.00  0.00    -0.067 NA
ENDBRANCH   1   8
TORSDOF 1
BEGIN_RES LYS A 135
REMARK  4 active torsions:
REMARK  status: ('A' for Active; 'I' for Inactive)
REMARK    1  A    between atoms: CA   and  CB  
REMARK    2  A    between atoms: CB   and  CG  
REMARK    3  A    between atoms: CG   and  CD  
REMARK    4  A    between atoms: CD   and  CE  
ROOT
ATOM      1  CA  LYS A 135      33.193  34.663   9.290  1.00 25.02     0.186 C 
ENDROOT
BRANCH   1   2
ATOM      2  CB  LYS A 135      32.060  35.360  10.034  1.00 26.63     0.034 C 
BRANCH   2   3
ATOM      3  CG  LYS A 135      30.731  34.662   9.898  1.00 29.45     0.005 C 
BRANCH   3   4
ATOM      4  CD  LYS A 135      30.327  34.558   8.436  1.00 32.00     0.041 C 
BRANCH   4   5
ATOM      5  CE  LYS A 135      28.816  34.525   8.302  1.00 34.25     0.338 C 
ATOM      6  NZ  LYS A 135      28.192  33.808   9.448  1.00 35.99     0.618 N 
ENDBRANCH   4   5
ENDBRANCH   3   4
ENDBRANCH   2   3
ENDBRANCH   1   2
END_RES LYS A 135
BEGIN_RES TYR A 136
REMARK  2 active torsions:
REMARK  status: ('A' for Active; 'I' for Inactive)
REMARK    5  A    between atoms: CA   and  CB  
REMARK    6  A    between atoms: CB   and  CG  
ROOT
ATOM      7  CA  TYR A 136      36.583  36.399   8.994  1.00 26.14     0.191 C 
ENDROOT
BRANCH   7   8
ATOM      8  CB  TYR A 136      37.367  36.835  10.240  1.00 28.16     0.060 C 
BRANCH   8   9
ATOM      9  CG  TYR A 136      37.227  38.310  10.527  1.00 31.88    -0.020 A 
ATOM     10  CD2 TYR A 136      37.859  38.896  11.626  1.00 32.67    -0.002 A 
ATOM     11  CE2 TYR A 136      37.721  40.266  11.885  1.00 33.89     0.027 A 
ATOM     12  CZ  TYR A 136      36.942  41.057  11.037  1.00 34.34     0.131 A 
ATOM     13  OH  TYR A 136      36.797  42.418  11.270  1.00 35.14    -0.190 OA
ATOM     14  CE1 TYR A 136      36.305  40.491   9.942  1.00 35.01     0.027 A 
ATOM     15  CD1 TYR A 136      36.445  39.124   9.698  1.00 33.57    -0.002 A 
ENDBRANCH   8   9
ENDBRANCH   7   8
END_RES TYR A 136
BEGIN_RES ASN A 133
REMARK  2 active torsions:
REMARK  status: ('A' for Active; 'I' for Inactive)
REMARK    7  A    between atoms: CA   and  CB  
REMARK    8  A    between atoms: CB   and  CG  
ROOT
ATOM     16  CA  ASN A 133      31.225  30.257  11.749  1.00 18.15     0.196 C 
ENDROOT
BRANCH  16  17
ATOM     17  CB  ASN A 133      30.092  31.240  11.460  1.00 18.27     0.126 C 
BRANCH  17  18
ATOM     18  CG  ASN A 133      28.752  30.581  11.345  1.00 18.94     0.276 C 
ATOM     19  OD1 ASN A 133      28.583  29.600  10.619  1.00 18.09    -0.269 OA
ATOM     20  ND2 ASN A 133      27.773  31.122  12.070  1.00 18.93    -0.107 N 
ENDBRANCH  17  18
ENDBRANCH  16  17
END_RES ASN A 133
