REMARK VINA RESULT:    -4.357      0.000      0.000
REMARK INTER + INTRA:          -8.043
REMARK INTER:                  -4.880
REMARK INTRA:                  -3.163
REMARK UNBOUND:                -2.667
REMARK SMILES Cc1cn(CC(O)CO)nn1
REMARK SMILES IDX 6 1 5 2 4 3 1 4 2 5 3 6 11 7 10 8 7 9 8 11 9 12
REMARK H PARENT 7 10 9 13
REMARK Flexibility Score: inf
ROOT
ATOM      1  C   UNL     1      37.310  37.547   1.399  1.00  0.00     0.161 C 
ENDROOT
BRANCH   1   2
ATOM      2  C   UNL     1      36.057  38.321   1.735  1.00  0.00     0.180 C 
BRANCH   2   3
ATOM      3  N   UNL     1      35.835  38.393   3.164  1.00  0.00    -0.250 N 
ATOM      4  C   UNL     1      34.282  39.511   6.286  1.00  0.00     0.070 C 
ATOM      5  C   UNL     1      35.059  38.911   5.173  1.00  0.00     0.080 A 
ATOM      6  C   UNL     1      34.936  39.143   3.824  1.00  0.00     0.134 A 
ATOM      7  N   UNL     1      36.051  38.008   5.295  1.00  0.00    -0.136 NA
ATOM      8  N   UNL     1      36.491  37.720   4.093  1.00  0.00    -0.067 NA
ENDBRANCH   2   3
ENDBRANCH   1   2
BRANCH   1   9
ATOM      9  O   UNL     1      36.970  36.528   0.520  1.00  0.00    -0.389 OA
ATOM     10  H   UNL     1      36.120  36.646   0.068  1.00  0.00     0.211 HD
ENDBRANCH   1   9
BRANCH   1  11
ATOM     11  C   UNL     1      38.305  38.437   0.721  1.00  0.00     0.189 C 
BRANCH  11  12
ATOM     12  O   UNL     1      38.451  38.014  -0.591  1.00  0.00    -0.394 OA
ATOM     13  H   UNL     1      37.992  38.619  -1.229  1.00  0.00     0.210 HD
ENDBRANCH  11  12
ENDBRANCH   1  11
TORSDOF 5
BEGIN_RES LYS A 135
REMARK  4 active torsions:
REMARK  status: ('A' for Active; 'I' for Inactive)
REMARK    1  A    between atoms: CA   and  CB  
REMARK    2  A    between atoms: CB   and  CG  
REMARK    3  A    between atoms: CG   and  CD  
REMARK    4  A    between atoms: CD   and  CE  
ROOT
ATOM      1  CA  LYS A 135      33.193  34.663   9.290  1.00 25.02     0.186 C 
ENDROOT
BRANCH   1   2
ATOM      2  CB  LYS A 135      32.060  35.360  10.034  1.00 26.63     0.034 C 
BRANCH   2   3
ATOM      3  CG  LYS A 135      30.703  34.764   9.761  1.00 29.45     0.005 C 
BRANCH   3   4
ATOM      4  CD  LYS A 135      30.503  34.548   8.269  1.00 32.00     0.041 C 
BRANCH   4   5
ATOM      5  CE  LYS A 135      29.081  34.891   7.867  1.00 34.25     0.338 C 
ATOM      6  NZ  LYS A 135      28.098  34.312   8.825  1.00 35.99     0.618 N 
ENDBRANCH   4   5
ENDBRANCH   3   4
ENDBRANCH   2   3
ENDBRANCH   1   2
END_RES LYS A 135
BEGIN_RES TYR A 136
REMARK  2 active torsions:
REMARK  status: ('A' for Active; 'I' for Inactive)
REMARK    5  A    between atoms: CA   and  CB  
REMARK    6  A    between atoms: CB   and  CG  
ROOT
ATOM      7  CA  TYR A 136      36.583  36.399   8.994  1.00 26.14     0.191 C 
ENDROOT
BRANCH   7   8
ATOM      8  CB  TYR A 136      37.367  36.835  10.240  1.00 28.16     0.060 C 
BRANCH   8   9
ATOM      9  CG  TYR A 136      37.237  38.312  10.520  1.00 31.88    -0.020 A 
ATOM     10  CD2 TYR A 136      36.556  39.157   9.641  1.00 32.67    -0.002 A 
ATOM     11  CE2 TYR A 136      36.442  40.528   9.909  1.00 33.89     0.027 A 
ATOM     12  CZ  TYR A 136      37.017  41.059  11.067  1.00 34.34     0.131 A 
ATOM     13  OH  TYR A 136      36.911  42.412  11.356  1.00 35.14    -0.190 OA
ATOM     14  CE1 TYR A 136      37.699  40.234  11.950  1.00 35.01     0.027 A 
ATOM     15  CD1 TYR A 136      37.810  38.871  11.669  1.00 33.57    -0.002 A 
ENDBRANCH   8   9
ENDBRANCH   7   8
END_RES TYR A 136
BEGIN_RES ASN A 133
REMARK  2 active torsions:
REMARK  status: ('A' for Active; 'I' for Inactive)
REMARK    7  A    between atoms: CA   and  CB  
REMARK    8  A    between atoms: CB   and  CG  
ROOT
ATOM     16  CA  ASN A 133      31.225  30.257  11.749  1.00 18.15     0.196 C 
ENDROOT
BRANCH  16  17
ATOM     17  CB  ASN A 133      30.092  31.240  11.460  1.00 18.27     0.126 C 
BRANCH  17  18
ATOM     18  CG  ASN A 133      28.751  30.582  11.354  1.00 18.94     0.276 C 
ATOM     19  OD1 ASN A 133      28.576  29.602  10.627  1.00 18.09    -0.269 OA
ATOM     20  ND2 ASN A 133      27.777  31.123  12.085  1.00 18.93    -0.107 N 
ENDBRANCH  17  18
ENDBRANCH  16  17
END_RES ASN A 133
