REMARK VINA RESULT:    -6.431      3.665      7.261
REMARK INTER + INTRA:          -8.950
REMARK INTER:                  -6.268
REMARK INTRA:                  -2.682
REMARK UNBOUND:                -1.391
REMARK SMILES Cc1cn(C(c2ccccc2)c2ccccc2)nn1
REMARK SMILES IDX 5 1 4 2 1 3 2 4 3 5 19 6 18 7 6 8 7 9 11 10 8 11 10 12 9 13
REMARK SMILES IDX 12 14 13 15 17 16 14 17 16 18 15 19
REMARK H PARENT
REMARK Flexibility Score: inf
ROOT
ATOM      1  C   UNL     1      25.782  35.291   9.430  1.00  0.00     0.169 C 
ENDROOT
BRANCH   1   2
ATOM      2  N   UNL     1      26.618  35.261  10.629  1.00  0.00    -0.240 N 
ATOM      3  C   UNL     1      29.205  36.354  12.967  1.00  0.00     0.070 C 
ATOM      4  C   UNL     1      28.129  35.732  12.189  1.00  0.00     0.080 A 
ATOM      5  C   UNL     1      27.585  36.130  10.973  1.00  0.00     0.135 A 
ATOM      6  N   UNL     1      27.451  34.620  12.527  1.00  0.00    -0.136 NA
ATOM      7  N   UNL     1      26.561  34.359  11.590  1.00  0.00    -0.066 NA
ENDBRANCH   1   2
BRANCH   1   8
ATOM      8  C   UNL     1      26.481  35.837   8.248  1.00  0.00    -0.019 A 
ATOM      9  C   UNL     1      26.254  37.089   7.744  1.00  0.00     0.006 A 
ATOM     10  C   UNL     1      27.435  35.067   7.586  1.00  0.00     0.006 A 
ATOM     11  C   UNL     1      26.960  37.541   6.623  1.00  0.00     0.000 A 
ATOM     12  C   UNL     1      28.127  35.508   6.487  1.00  0.00     0.000 A 
ATOM     13  C   UNL     1      27.894  36.760   5.990  1.00  0.00     0.000 A 
ENDBRANCH   1   8
BRANCH   1  14
ATOM     14  C   UNL     1      24.470  35.885   9.692  1.00  0.00    -0.019 A 
ATOM     15  C   UNL     1      24.250  36.953  10.535  1.00  0.00     0.006 A 
ATOM     16  C   UNL     1      23.350  35.380   9.059  1.00  0.00     0.006 A 
ATOM     17  C   UNL     1      23.001  37.463  10.718  1.00  0.00     0.000 A 
ATOM     18  C   UNL     1      22.077  35.878   9.227  1.00  0.00     0.000 A 
ATOM     19  C   UNL     1      21.912  36.934  10.071  1.00  0.00     0.000 A 
ENDBRANCH   1  14
TORSDOF 3
BEGIN_RES LYS A 135
REMARK  4 active torsions:
REMARK  status: ('A' for Active; 'I' for Inactive)
REMARK    1  A    between atoms: CA   and  CB  
REMARK    2  A    between atoms: CB   and  CG  
REMARK    3  A    between atoms: CG   and  CD  
REMARK    4  A    between atoms: CD   and  CE  
ROOT
ATOM      1  CA  LYS A 135      33.193  34.663   9.290  1.00 25.02     0.186 C 
ENDROOT
BRANCH   1   2
ATOM      2  CB  LYS A 135      32.060  35.360  10.034  1.00 26.63     0.034 C 
BRANCH   2   3
ATOM      3  CG  LYS A 135      30.797  35.491   9.222  1.00 29.45     0.005 C 
BRANCH   3   4
ATOM      4  CD  LYS A 135      30.465  36.955   8.979  1.00 32.00     0.041 C 
BRANCH   4   5
ATOM      5  CE  LYS A 135      31.152  37.835  10.006  1.00 34.25     0.338 C 
ATOM      6  NZ  LYS A 135      30.261  38.944  10.445  1.00 35.99     0.618 N 
ENDBRANCH   4   5
ENDBRANCH   3   4
ENDBRANCH   2   3
ENDBRANCH   1   2
END_RES LYS A 135
BEGIN_RES TYR A 136
REMARK  2 active torsions:
REMARK  status: ('A' for Active; 'I' for Inactive)
REMARK    5  A    between atoms: CA   and  CB  
REMARK    6  A    between atoms: CB   and  CG  
ROOT
ATOM      7  CA  TYR A 136      36.583  36.399   8.994  1.00 26.14     0.191 C 
ENDROOT
BRANCH   7   8
ATOM      8  CB  TYR A 136      37.367  36.835  10.240  1.00 28.16     0.060 C 
BRANCH   8   9
ATOM      9  CG  TYR A 136      37.212  38.306  10.538  1.00 31.88    -0.020 A 
ATOM     10  CD2 TYR A 136      36.046  38.807  11.122  1.00 32.67    -0.002 A 
ATOM     11  CE2 TYR A 136      35.911  40.175  11.393  1.00 33.89     0.027 A 
ATOM     12  CZ  TYR A 136      36.952  41.051  11.076  1.00 34.34     0.131 A 
ATOM     13  OH  TYR A 136      36.844  42.409  11.342  1.00 35.14    -0.190 OA
ATOM     14  CE1 TYR A 136      38.117  40.571  10.495  1.00 35.01     0.027 A 
ATOM     15  CD1 TYR A 136      38.237  39.207  10.224  1.00 33.57    -0.002 A 
ENDBRANCH   8   9
ENDBRANCH   7   8
END_RES TYR A 136
BEGIN_RES ASN A 133
REMARK  2 active torsions:
REMARK  status: ('A' for Active; 'I' for Inactive)
REMARK    7  A    between atoms: CA   and  CB  
REMARK    8  A    between atoms: CB   and  CG  
ROOT
ATOM     16  CA  ASN A 133      31.225  30.257  11.749  1.00 18.15     0.196 C 
ENDROOT
BRANCH  16  17
ATOM     17  CB  ASN A 133      30.092  31.240  11.460  1.00 18.27     0.126 C 
BRANCH  17  18
ATOM     18  CG  ASN A 133      28.754  30.580  11.336  1.00 18.94     0.276 C 
ATOM     19  OD1 ASN A 133      28.577  29.635  10.566  1.00 18.09    -0.269 OA
ATOM     20  ND2 ASN A 133      27.785  31.080  12.102  1.00 18.93    -0.107 N 
ENDBRANCH  17  18
ENDBRANCH  16  17
END_RES ASN A 133
