REMARK VINA RESULT:    -5.036      5.201      9.800
REMARK INTER + INTRA:          -9.215
REMARK INTER:                  -6.440
REMARK INTRA:                  -2.775
REMARK UNBOUND:                -3.149
REMARK SMILES Cc1cn(-c2cc(C(=O)O)nc(-c3ccccc3)c2)nn1
REMARK SMILES IDX 5 1 6 2 7 3 11 4 12 5 19 6 4 7 1 8 2 9 3 10 21 11 20 12 8 13
REMARK SMILES IDX 9 14 10 15 13 17 14 18 18 19 15 20 17 21 16 22
REMARK H PARENT 10 16
REMARK Flexibility Score: inf
ROOT
ATOM      1  C   UNL     1      25.064  34.696  11.492  1.00  0.00     0.071 A 
ATOM      2  C   UNL     1      23.731  34.978  11.301  1.00  0.00     0.064 A 
ATOM      3  C   UNL     1      23.285  35.559  10.118  1.00  0.00     0.151 A 
ATOM      4  N   UNL     1      24.188  35.837   9.169  1.00  0.00    -0.241 NA
ATOM      5  C   UNL     1      25.514  35.591   9.279  1.00  0.00     0.073 A 
ATOM      6  C   UNL     1      25.935  35.016  10.457  1.00  0.00     0.057 A 
ENDROOT
BRANCH   1   7
ATOM      7  N   UNL     1      25.561  34.103  12.682  1.00  0.00    -0.220 N 
ATOM      8  C   UNL     1      27.835  33.676  15.532  1.00  0.00     0.070 C 
ATOM      9  C   UNL     1      26.777  33.623  14.492  1.00  0.00     0.080 A 
ATOM     10  C   UNL     1      26.644  34.460  13.403  1.00  0.00     0.140 A 
ATOM     11  N   UNL     1      25.738  32.761  14.391  1.00  0.00    -0.135 NA
ATOM     12  N   UNL     1      25.035  33.065  13.315  1.00  0.00    -0.062 NA
ENDBRANCH   1   7
BRANCH   3  13
ATOM     13  C   UNL     1      21.864  35.836   9.967  1.00  0.00     0.354 C 
ATOM     14  O   UNL     1      21.406  36.876  10.502  1.00  0.00    -0.245 OA
BRANCH  13  15
ATOM     15  O   UNL     1      21.007  35.009   9.267  1.00  0.00    -0.477 OA
ATOM     16  H   UNL     1      19.989  35.020   9.427  1.00  0.00     0.297 HD
ENDBRANCH  13  15
ENDBRANCH   3  13
BRANCH   5  17
ATOM     17  C   UNL     1      26.395  35.940   8.175  1.00  0.00     0.000 A 
ATOM     18  C   UNL     1      26.261  37.092   7.462  1.00  0.00     0.010 A 
ATOM     19  C   UNL     1      27.412  35.082   7.821  1.00  0.00     0.010 A 
ATOM     20  C   UNL     1      27.149  37.356   6.413  1.00  0.00     0.001 A 
ATOM     21  C   UNL     1      28.282  35.333   6.799  1.00  0.00     0.001 A 
ATOM     22  C   UNL     1      28.149  36.496   6.077  1.00  0.00     0.000 A 
ENDBRANCH   5  17
TORSDOF 4
BEGIN_RES LYS A 135
REMARK  4 active torsions:
REMARK  status: ('A' for Active; 'I' for Inactive)
REMARK    1  A    between atoms: CA   and  CB  
REMARK    2  A    between atoms: CB   and  CG  
REMARK    3  A    between atoms: CG   and  CD  
REMARK    4  A    between atoms: CD   and  CE  
ROOT
ATOM      1  CA  LYS A 135      33.193  34.663   9.290  1.00 25.02     0.186 C 
ENDROOT
BRANCH   1   2
ATOM      2  CB  LYS A 135      32.060  35.360  10.034  1.00 26.63     0.034 C 
BRANCH   2   3
ATOM      3  CG  LYS A 135      30.688  34.932   9.581  1.00 29.45     0.005 C 
BRANCH   3   4
ATOM      4  CD  LYS A 135      29.724  34.886  10.756  1.00 32.00     0.041 C 
BRANCH   4   5
ATOM      5  CE  LYS A 135      30.381  35.443  12.005  1.00 34.25     0.338 C 
ATOM      6  NZ  LYS A 135      30.359  34.446  13.112  1.00 35.99     0.618 N 
ENDBRANCH   4   5
ENDBRANCH   3   4
ENDBRANCH   2   3
ENDBRANCH   1   2
END_RES LYS A 135
BEGIN_RES TYR A 136
REMARK  2 active torsions:
REMARK  status: ('A' for Active; 'I' for Inactive)
REMARK    5  A    between atoms: CA   and  CB  
REMARK    6  A    between atoms: CB   and  CG  
ROOT
ATOM      7  CA  TYR A 136      36.583  36.399   8.994  1.00 26.14     0.191 C 
ENDROOT
BRANCH   7   8
ATOM      8  CB  TYR A 136      37.367  36.835  10.240  1.00 28.16     0.060 C 
BRANCH   8   9
ATOM      9  CG  TYR A 136      37.212  38.306  10.538  1.00 31.88    -0.020 A 
ATOM     10  CD2 TYR A 136      36.441  39.133   9.717  1.00 32.67    -0.002 A 
ATOM     11  CE2 TYR A 136      36.305  40.498  10.001  1.00 33.89     0.027 A 
ATOM     12  CZ  TYR A 136      36.946  41.042  11.117  1.00 34.34     0.131 A 
ATOM     13  OH  TYR A 136      36.819  42.390  11.422  1.00 35.14    -0.190 OA
ATOM     14  CE1 TYR A 136      37.717  40.236  11.943  1.00 35.01     0.027 A 
ATOM     15  CD1 TYR A 136      37.850  38.878  11.646  1.00 33.57    -0.002 A 
ENDBRANCH   8   9
ENDBRANCH   7   8
END_RES TYR A 136
BEGIN_RES ASN A 133
REMARK  2 active torsions:
REMARK  status: ('A' for Active; 'I' for Inactive)
REMARK    7  A    between atoms: CA   and  CB  
REMARK    8  A    between atoms: CB   and  CG  
ROOT
ATOM     16  CA  ASN A 133      31.225  30.257  11.749  1.00 18.15     0.196 C 
ENDROOT
BRANCH  16  17
ATOM     17  CB  ASN A 133      30.092  31.240  11.460  1.00 18.27     0.126 C 
BRANCH  17  18
ATOM     18  CG  ASN A 133      28.761  30.576  11.292  1.00 18.94     0.276 C 
ATOM     19  OD1 ASN A 133      28.628  29.587  10.568  1.00 18.09    -0.269 OA
ATOM     20  ND2 ASN A 133      27.749  31.120  11.966  1.00 18.93    -0.107 N 
ENDBRANCH  17  18
ENDBRANCH  16  17
END_RES ASN A 133
