REMARK VINA RESULT:    -3.745      8.864     13.645
REMARK INTER + INTRA:          -6.832
REMARK INTER:                  -3.915
REMARK INTRA:                  -2.916
REMARK UNBOUND:                -2.867
REMARK SMILES Cc1cn(-c2ccc(Cl)cc2)nn1
REMARK SMILES IDX 5 1 6 2 7 3 8 4 9 5 10 6 11 7 4 8 1 9 2 10 3 11 13 12 12 13
REMARK H PARENT
REMARK Flexibility Score: inf
ROOT
ATOM      1  C   UNL     1      22.366  34.633  -0.965  1.00  0.00     0.066 A 
ATOM      2  C   UNL     1      21.318  35.470  -0.641  1.00  0.00     0.030 A 
ATOM      3  C   UNL     1      21.233  36.772  -1.061  1.00  0.00     0.023 A 
ATOM      4  C   UNL     1      22.245  37.301  -1.857  1.00  0.00     0.041 A 
ATOM      5  Cl  UNL     1      22.163  38.964  -2.409  1.00  0.00    -0.084 Cl
ATOM      6  C   UNL     1      23.310  36.475  -2.194  1.00  0.00     0.023 A 
ATOM      7  C   UNL     1      23.367  35.167  -1.754  1.00  0.00     0.030 A 
ENDROOT
BRANCH   1   8
ATOM      8  N   UNL     1      22.433  33.284  -0.516  1.00  0.00    -0.220 N 
ATOM      9  C   UNL     1      22.111  29.643  -0.912  1.00  0.00     0.070 C 
ATOM     10  C   UNL     1      22.314  31.053  -0.508  1.00  0.00     0.080 A 
ATOM     11  C   UNL     1      22.138  32.189  -1.267  1.00  0.00     0.140 A 
ATOM     12  N   UNL     1      22.714  31.484   0.698  1.00  0.00    -0.135 NA
ATOM     13  N   UNL     1      22.776  32.805   0.668  1.00  0.00    -0.062 NA
ENDBRANCH   1   8
TORSDOF 1
BEGIN_RES LYS A 135
REMARK  4 active torsions:
REMARK  status: ('A' for Active; 'I' for Inactive)
REMARK    1  A    between atoms: CA   and  CB  
REMARK    2  A    between atoms: CB   and  CG  
REMARK    3  A    between atoms: CG   and  CD  
REMARK    4  A    between atoms: CD   and  CE  
ROOT
ATOM      1  CA  LYS A 135      33.193  34.663   9.290  1.00 25.02     0.186 C 
ENDROOT
BRANCH   1   2
ATOM      2  CB  LYS A 135      32.060  35.360  10.034  1.00 26.63     0.034 C 
BRANCH   2   3
ATOM      3  CG  LYS A 135      30.734  34.654   9.910  1.00 29.45     0.005 C 
BRANCH   3   4
ATOM      4  CD  LYS A 135      30.394  34.403   8.450  1.00 32.00     0.041 C 
BRANCH   4   5
ATOM      5  CE  LYS A 135      29.475  35.488   7.922  1.00 34.25     0.338 C 
ATOM      6  NZ  LYS A 135      28.094  34.970   7.720  1.00 35.99     0.618 N 
ENDBRANCH   4   5
ENDBRANCH   3   4
ENDBRANCH   2   3
ENDBRANCH   1   2
END_RES LYS A 135
BEGIN_RES TYR A 136
REMARK  2 active torsions:
REMARK  status: ('A' for Active; 'I' for Inactive)
REMARK    5  A    between atoms: CA   and  CB  
REMARK    6  A    between atoms: CB   and  CG  
ROOT
ATOM      7  CA  TYR A 136      36.583  36.399   8.994  1.00 26.14     0.191 C 
ENDROOT
BRANCH   7   8
ATOM      8  CB  TYR A 136      37.367  36.835  10.240  1.00 28.16     0.060 C 
BRANCH   8   9
ATOM      9  CG  TYR A 136      37.050  38.249  10.659  1.00 31.88    -0.020 A 
ATOM     10  CD2 TYR A 136      36.447  38.521  11.890  1.00 32.67    -0.002 A 
ATOM     11  CE2 TYR A 136      36.155  39.838  12.269  1.00 33.89     0.027 A 
ATOM     12  CZ  TYR A 136      36.469  40.894  11.409  1.00 34.34     0.131 A 
ATOM     13  OH  TYR A 136      36.196  42.206  11.767  1.00 35.14    -0.190 OA
ATOM     14  CE1 TYR A 136      37.067  40.642  10.183  1.00 35.01     0.027 A 
ATOM     15  CD1 TYR A 136      37.347  39.325   9.813  1.00 33.57    -0.002 A 
ENDBRANCH   8   9
ENDBRANCH   7   8
END_RES TYR A 136
BEGIN_RES ASN A 133
REMARK  2 active torsions:
REMARK  status: ('A' for Active; 'I' for Inactive)
REMARK    7  A    between atoms: CA   and  CB  
REMARK    8  A    between atoms: CB   and  CG  
ROOT
ATOM     16  CA  ASN A 133      31.225  30.257  11.749  1.00 18.15     0.196 C 
ENDROOT
BRANCH  16  17
ATOM     17  CB  ASN A 133      30.092  31.240  11.460  1.00 18.27     0.126 C 
BRANCH  17  18
ATOM     18  CG  ASN A 133      28.755  30.579  11.327  1.00 18.94     0.276 C 
ATOM     19  OD1 ASN A 133      28.587  29.626  10.565  1.00 18.09    -0.269 OA
ATOM     20  ND2 ASN A 133      27.777  31.087  12.076  1.00 18.93    -0.107 N 
ENDBRANCH  17  18
ENDBRANCH  16  17
END_RES ASN A 133
