REMARK VINA RESULT:    -3.846      5.348     10.273
REMARK INTER + INTRA:          -7.727
REMARK INTER:                  -5.135
REMARK INTRA:                  -2.592
REMARK UNBOUND:                -3.432
REMARK SMILES Cc1cn(-c2ccccc2C(C)C)nn1
REMARK SMILES IDX 5 1 10 2 9 3 8 4 7 5 6 6 4 7 1 8 2 9 3 10 15 11 14 12 11 13
REMARK SMILES IDX 12 14 13 15
REMARK H PARENT
REMARK Flexibility Score: inf
ROOT
ATOM      1  C   UNL     1      25.005  37.036   8.166  1.00  0.00     0.070 A 
ATOM      2  C   UNL     1      25.068  35.952   9.010  1.00  0.00    -0.020 A 
ATOM      3  C   UNL     1      23.894  35.340   9.436  1.00  0.00     0.006 A 
ATOM      4  C   UNL     1      22.647  35.769   9.054  1.00  0.00     0.000 A 
ATOM      5  C   UNL     1      22.581  36.858   8.207  1.00  0.00     0.002 A 
ATOM      6  C   UNL     1      23.735  37.466   7.782  1.00  0.00     0.029 A 
ENDROOT
BRANCH   1   7
ATOM      7  N   UNL     1      26.176  37.709   7.686  1.00  0.00    -0.220 N 
ATOM      8  C   UNL     1      29.062  38.319   5.507  1.00  0.00     0.070 C 
ATOM      9  C   UNL     1      27.995  38.312   6.526  1.00  0.00     0.080 A 
ATOM     10  C   UNL     1      26.946  37.393   6.631  1.00  0.00     0.140 A 
ATOM     11  N   UNL     1      27.793  39.167   7.565  1.00  0.00    -0.135 NA
ATOM     12  N   UNL     1      26.725  38.788   8.220  1.00  0.00    -0.062 NA
ENDBRANCH   1   7
BRANCH   2  13
ATOM     13  C   UNL     1      26.399  35.465   9.446  1.00  0.00     0.015 C 
ATOM     14  C   UNL     1      26.831  34.292   8.571  1.00  0.00     0.012 C 
ATOM     15  C   UNL     1      26.331  34.956  10.888  1.00  0.00     0.012 C 
ENDBRANCH   2  13
TORSDOF 2
BEGIN_RES LYS A 135
REMARK  4 active torsions:
REMARK  status: ('A' for Active; 'I' for Inactive)
REMARK    1  A    between atoms: CA   and  CB  
REMARK    2  A    between atoms: CB   and  CG  
REMARK    3  A    between atoms: CG   and  CD  
REMARK    4  A    between atoms: CD   and  CE  
ROOT
ATOM      1  CA  LYS A 135      33.193  34.663   9.290  1.00 25.02     0.186 C 
ENDROOT
BRANCH   1   2
ATOM      2  CB  LYS A 135      32.060  35.360  10.034  1.00 26.63     0.034 C 
BRANCH   2   3
ATOM      3  CG  LYS A 135      30.695  35.057   9.473  1.00 29.45     0.005 C 
BRANCH   3   4
ATOM      4  CD  LYS A 135      30.150  36.255   8.710  1.00 32.00     0.041 C 
BRANCH   4   5
ATOM      5  CE  LYS A 135      30.508  37.546   9.420  1.00 34.25     0.338 C 
ATOM      6  NZ  LYS A 135      31.160  38.507   8.489  1.00 35.99     0.618 N 
ENDBRANCH   4   5
ENDBRANCH   3   4
ENDBRANCH   2   3
ENDBRANCH   1   2
END_RES LYS A 135
BEGIN_RES TYR A 136
REMARK  2 active torsions:
REMARK  status: ('A' for Active; 'I' for Inactive)
REMARK    5  A    between atoms: CA   and  CB  
REMARK    6  A    between atoms: CB   and  CG  
ROOT
ATOM      7  CA  TYR A 136      36.583  36.399   8.994  1.00 26.14     0.191 C 
ENDROOT
BRANCH   7   8
ATOM      8  CB  TYR A 136      37.367  36.835  10.240  1.00 28.16     0.060 C 
BRANCH   8   9
ATOM      9  CG  TYR A 136      37.246  38.314  10.514  1.00 31.88    -0.020 A 
ATOM     10  CD2 TYR A 136      36.401  39.124   9.751  1.00 32.67    -0.002 A 
ATOM     11  CE2 TYR A 136      36.297  40.497  10.012  1.00 33.89     0.027 A 
ATOM     12  CZ  TYR A 136      37.045  41.065  11.046  1.00 34.34     0.131 A 
ATOM     13  OH  TYR A 136      36.953  42.421  11.328  1.00 35.14    -0.190 OA
ATOM     14  CE1 TYR A 136      37.890  40.275  11.813  1.00 35.01     0.027 A 
ATOM     15  CD1 TYR A 136      37.990  38.910  11.539  1.00 33.57    -0.002 A 
ENDBRANCH   8   9
ENDBRANCH   7   8
END_RES TYR A 136
BEGIN_RES ASN A 133
REMARK  2 active torsions:
REMARK  status: ('A' for Active; 'I' for Inactive)
REMARK    7  A    between atoms: CA   and  CB  
REMARK    8  A    between atoms: CB   and  CG  
ROOT
ATOM     16  CA  ASN A 133      31.225  30.257  11.749  1.00 18.15     0.196 C 
ENDROOT
BRANCH  16  17
ATOM     17  CB  ASN A 133      30.092  31.240  11.460  1.00 18.27     0.126 C 
BRANCH  17  18
ATOM     18  CG  ASN A 133      28.752  30.582  11.348  1.00 18.94     0.276 C 
ATOM     19  OD1 ASN A 133      28.582  29.597  10.627  1.00 18.09    -0.269 OA
ATOM     20  ND2 ASN A 133      27.773  31.127  12.069  1.00 18.93    -0.107 N 
ENDBRANCH  17  18
ENDBRANCH  16  17
END_RES ASN A 133
