REMARK VINA RESULT:    -2.872      3.489      4.934
REMARK INTER + INTRA:          -6.685
REMARK INTER:                  -3.435
REMARK INTRA:                  -3.250
REMARK UNBOUND:                -3.309
REMARK SMILES Cc1cn(CCC2OCCO2)nn1
REMARK SMILES IDX 5 1 4 2 1 3 2 4 3 5 13 6 12 7 6 8 7 9 8 10 11 11 9 12 10 13
REMARK H PARENT
REMARK Flexibility Score: inf
ROOT
ATOM      1  C   UNL     1      25.479  37.018  -2.383  1.00  0.00     0.151 C 
ENDROOT
BRANCH   1   2
ATOM      2  N   UNL     1      26.604  37.906  -2.514  1.00  0.00    -0.252 N 
ATOM      3  C   UNL     1      30.060  38.699  -3.272  1.00  0.00     0.070 C 
ATOM      4  C   UNL     1      28.617  38.636  -2.907  1.00  0.00     0.080 A 
ATOM      5  C   UNL     1      27.823  37.512  -2.905  1.00  0.00     0.134 A 
ATOM      6  N   UNL     1      27.851  39.670  -2.517  1.00  0.00    -0.136 NA
ATOM      7  N   UNL     1      26.635  39.206  -2.285  1.00  0.00    -0.067 NA
ENDBRANCH   1   2
BRANCH   1   8
ATOM      8  C   UNL     1      24.406  37.710  -1.612  1.00  0.00     0.086 C 
BRANCH   8   9
ATOM      9  C   UNL     1      23.104  36.935  -1.595  1.00  0.00     0.251 C 
ATOM     10  O   UNL     1      22.270  37.322  -0.576  1.00  0.00    -0.350 OA
ATOM     11  O   UNL     1      23.297  35.578  -1.513  1.00  0.00    -0.350 OA
ATOM     12  C   UNL     1      21.943  36.214   0.169  1.00  0.00     0.192 C 
ATOM     13  C   UNL     1      23.074  35.261  -0.164  1.00  0.00     0.192 C 
ENDBRANCH   8   9
ENDBRANCH   1   8
TORSDOF 3
BEGIN_RES LYS A 135
REMARK  4 active torsions:
REMARK  status: ('A' for Active; 'I' for Inactive)
REMARK    1  A    between atoms: CA   and  CB  
REMARK    2  A    between atoms: CB   and  CG  
REMARK    3  A    between atoms: CG   and  CD  
REMARK    4  A    between atoms: CD   and  CE  
ROOT
ATOM      1  CA  LYS A 135      33.193  34.663   9.290  1.00 25.02     0.186 C 
ENDROOT
BRANCH   1   2
ATOM      2  CB  LYS A 135      32.060  35.360  10.034  1.00 26.63     0.034 C 
BRANCH   2   3
ATOM      3  CG  LYS A 135      30.725  34.680   9.873  1.00 29.45     0.005 C 
BRANCH   3   4
ATOM      4  CD  LYS A 135      30.360  34.556   8.401  1.00 32.00     0.041 C 
BRANCH   4   5
ATOM      5  CE  LYS A 135      28.854  34.557   8.224  1.00 34.25     0.338 C 
ATOM      6  NZ  LYS A 135      28.180  33.861   9.356  1.00 35.99     0.618 N 
ENDBRANCH   4   5
ENDBRANCH   3   4
ENDBRANCH   2   3
ENDBRANCH   1   2
END_RES LYS A 135
BEGIN_RES TYR A 136
REMARK  2 active torsions:
REMARK  status: ('A' for Active; 'I' for Inactive)
REMARK    5  A    between atoms: CA   and  CB  
REMARK    6  A    between atoms: CB   and  CG  
ROOT
ATOM      7  CA  TYR A 136      36.583  36.399   8.994  1.00 26.14     0.191 C 
ENDROOT
BRANCH   7   8
ATOM      8  CB  TYR A 136      37.367  36.835  10.240  1.00 28.16     0.060 C 
BRANCH   8   9
ATOM      9  CG  TYR A 136      37.234  38.311  10.522  1.00 31.88    -0.020 A 
ATOM     10  CD2 TYR A 136      36.401  39.123   9.749  1.00 32.67    -0.002 A 
ATOM     11  CE2 TYR A 136      36.285  40.494  10.018  1.00 33.89     0.027 A 
ATOM     12  CZ  TYR A 136      37.011  41.057  11.071  1.00 34.34     0.131 A 
ATOM     13  OH  TYR A 136      36.907  42.411  11.360  1.00 35.14    -0.190 OA
ATOM     14  CE1 TYR A 136      37.844  40.266  11.848  1.00 35.01     0.027 A 
ATOM     15  CD1 TYR A 136      37.956  38.903  11.566  1.00 33.57    -0.002 A 
ENDBRANCH   8   9
ENDBRANCH   7   8
END_RES TYR A 136
BEGIN_RES ASN A 133
REMARK  2 active torsions:
REMARK  status: ('A' for Active; 'I' for Inactive)
REMARK    7  A    between atoms: CA   and  CB  
REMARK    8  A    between atoms: CB   and  CG  
ROOT
ATOM     16  CA  ASN A 133      31.225  30.257  11.749  1.00 18.15     0.196 C 
ENDROOT
BRANCH  16  17
ATOM     17  CB  ASN A 133      30.092  31.240  11.460  1.00 18.27     0.126 C 
BRANCH  17  18
ATOM     18  CG  ASN A 133      28.754  30.580  11.331  1.00 18.94     0.276 C 
ATOM     19  OD1 ASN A 133      28.593  29.604  10.595  1.00 18.09    -0.269 OA
ATOM     20  ND2 ASN A 133      27.769  31.112  12.052  1.00 18.93    -0.107 N 
ENDBRANCH  17  18
ENDBRANCH  16  17
END_RES ASN A 133
