REMARK VINA RESULT:    -2.938      6.074      7.973
REMARK INTER + INTRA:          -6.369
REMARK INTER:                  -3.227
REMARK INTRA:                  -3.142
REMARK UNBOUND:                -3.260
REMARK SMILES Cc1cn(-c2ccccc2Br)nn1
REMARK SMILES IDX 5 1 6 2 7 3 8 4 9 5 10 6 11 7 4 8 1 9 2 10 3 11 13 12 12 13
REMARK H PARENT
REMARK Flexibility Score: inf
ROOT
ATOM      1  C   UNL     1      35.636  39.182   2.813  1.00  0.00     0.081 A 
ATOM      2  C   UNL     1      35.664  37.898   2.310  1.00  0.00     0.029 A 
ATOM      3  C   UNL     1      36.699  37.508   1.486  1.00  0.00     0.002 A 
ATOM      4  C   UNL     1      37.701  38.402   1.169  1.00  0.00     0.001 A 
ATOM      5  C   UNL     1      37.654  39.676   1.682  1.00  0.00     0.018 A 
ATOM      6  C   UNL     1      36.632  40.101   2.510  1.00  0.00     0.043 A 
ATOM      7  Br  UNL     1      36.592  41.879   3.208  1.00  0.00    -0.048 Br
ENDROOT
BRANCH   1   8
ATOM      8  N   UNL     1      34.561  39.547   3.652  1.00  0.00    -0.219 N 
ATOM      9  C   UNL     1      33.072  39.770   6.967  1.00  0.00     0.070 C 
ATOM     10  C   UNL     1      33.413  39.808   5.525  1.00  0.00     0.080 A 
ATOM     11  C   UNL     1      34.585  39.360   5.002  1.00  0.00     0.140 A 
ATOM     12  N   UNL     1      32.683  40.263   4.499  1.00  0.00    -0.135 NA
ATOM     13  N   UNL     1      33.399  40.093   3.385  1.00  0.00    -0.062 NA
ENDBRANCH   1   8
TORSDOF 1
BEGIN_RES LYS A 135
REMARK  4 active torsions:
REMARK  status: ('A' for Active; 'I' for Inactive)
REMARK    1  A    between atoms: CA   and  CB  
REMARK    2  A    between atoms: CB   and  CG  
REMARK    3  A    between atoms: CG   and  CD  
REMARK    4  A    between atoms: CD   and  CE  
ROOT
ATOM      1  CA  LYS A 135      33.193  34.663   9.290  1.00 25.02     0.186 C 
ENDROOT
BRANCH   1   2
ATOM      2  CB  LYS A 135      32.060  35.360  10.034  1.00 26.63     0.034 C 
BRANCH   2   3
ATOM      3  CG  LYS A 135      30.854  35.636   9.174  1.00 29.45     0.005 C 
BRANCH   3   4
ATOM      4  CD  LYS A 135      30.283  34.339   8.619  1.00 32.00     0.041 C 
BRANCH   4   5
ATOM      5  CE  LYS A 135      28.816  34.509   8.272  1.00 34.25     0.338 C 
ATOM      6  NZ  LYS A 135      28.647  35.353   7.057  1.00 35.99     0.618 N 
ENDBRANCH   4   5
ENDBRANCH   3   4
ENDBRANCH   2   3
ENDBRANCH   1   2
END_RES LYS A 135
BEGIN_RES TYR A 136
REMARK  2 active torsions:
REMARK  status: ('A' for Active; 'I' for Inactive)
REMARK    5  A    between atoms: CA   and  CB  
REMARK    6  A    between atoms: CB   and  CG  
ROOT
ATOM      7  CA  TYR A 136      36.583  36.399   8.994  1.00 26.14     0.191 C 
ENDROOT
BRANCH   7   8
ATOM      8  CB  TYR A 136      37.367  36.835  10.240  1.00 28.16     0.060 C 
BRANCH   8   9
ATOM      9  CG  TYR A 136      37.189  38.300  10.554  1.00 31.88    -0.020 A 
ATOM     10  CD2 TYR A 136      36.408  39.124   9.741  1.00 32.67    -0.002 A 
ATOM     11  CE2 TYR A 136      36.250  40.484  10.041  1.00 33.89     0.027 A 
ATOM     12  CZ  TYR A 136      36.882  41.025  11.164  1.00 34.34     0.131 A 
ATOM     13  OH  TYR A 136      36.734  42.367  11.484  1.00 35.14    -0.190 OA
ATOM     14  CE1 TYR A 136      37.663  40.221  11.982  1.00 35.01     0.027 A 
ATOM     15  CD1 TYR A 136      37.817  38.869  11.669  1.00 33.57    -0.002 A 
ENDBRANCH   8   9
ENDBRANCH   7   8
END_RES TYR A 136
BEGIN_RES ASN A 133
REMARK  2 active torsions:
REMARK  status: ('A' for Active; 'I' for Inactive)
REMARK    7  A    between atoms: CA   and  CB  
REMARK    8  A    between atoms: CB   and  CG  
ROOT
ATOM     16  CA  ASN A 133      31.225  30.257  11.749  1.00 18.15     0.196 C 
ENDROOT
BRANCH  16  17
ATOM     17  CB  ASN A 133      30.092  31.240  11.460  1.00 18.27     0.126 C 
BRANCH  17  18
ATOM     18  CG  ASN A 133      28.752  30.582  11.349  1.00 18.94     0.276 C 
ATOM     19  OD1 ASN A 133      28.578  29.607  10.615  1.00 18.09    -0.269 OA
ATOM     20  ND2 ASN A 133      27.777  31.116  12.084  1.00 18.93    -0.107 N 
ENDBRANCH  17  18
ENDBRANCH  16  17
END_RES ASN A 133
