REMARK VINA RESULT:    -3.513      8.046     12.405
REMARK INTER + INTRA:          -6.799
REMARK INTER:                  -4.061
REMARK INTRA:                  -2.738
REMARK UNBOUND:                -3.081
REMARK SMILES Cc1cn(-c2cccc(Cl)c2)nn1
REMARK SMILES IDX 5 1 6 2 7 3 8 4 9 5 10 6 11 7 4 8 1 9 2 10 3 11 13 12 12 13
REMARK H PARENT
REMARK Flexibility Score: inf
ROOT
ATOM      1  C   UNL     1      37.887  37.639   3.701  1.00  0.00     0.068 A 
ATOM      2  C   UNL     1      37.587  37.592   2.365  1.00  0.00     0.028 A 
ATOM      3  C   UNL     1      36.355  37.983   1.898  1.00  0.00     0.004 A 
ATOM      4  C   UNL     1      35.413  38.426   2.809  1.00  0.00     0.020 A 
ATOM      5  C   UNL     1      35.671  38.489   4.163  1.00  0.00     0.043 A 
ATOM      6  Cl  UNL     1      34.453  39.059   5.311  1.00  0.00    -0.084 Cl
ATOM      7  C   UNL     1      36.922  38.086   4.580  1.00  0.00     0.049 A 
ENDROOT
BRANCH   1   8
ATOM      8  N   UNL     1      39.175  37.234   4.209  1.00  0.00    -0.220 N 
ATOM      9  C   UNL     1      42.434  37.486   5.745  1.00  0.00     0.070 C 
ATOM     10  C   UNL     1      41.159  37.153   5.098  1.00  0.00     0.080 A 
ATOM     11  C   UNL     1      40.113  37.980   4.784  1.00  0.00     0.140 A 
ATOM     12  N   UNL     1      40.788  35.927   4.687  1.00  0.00    -0.135 NA
ATOM     13  N   UNL     1      39.589  35.979   4.149  1.00  0.00    -0.062 NA
ENDBRANCH   1   8
TORSDOF 1
BEGIN_RES LYS A 135
REMARK  4 active torsions:
REMARK  status: ('A' for Active; 'I' for Inactive)
REMARK    1  A    between atoms: CA   and  CB  
REMARK    2  A    between atoms: CB   and  CG  
REMARK    3  A    between atoms: CG   and  CD  
REMARK    4  A    between atoms: CD   and  CE  
ROOT
ATOM      1  CA  LYS A 135      33.193  34.663   9.290  1.00 25.02     0.186 C 
ENDROOT
BRANCH   1   2
ATOM      2  CB  LYS A 135      32.060  35.360  10.034  1.00 26.63     0.034 C 
BRANCH   2   3
ATOM      3  CG  LYS A 135      30.798  35.493   9.222  1.00 29.45     0.005 C 
BRANCH   3   4
ATOM      4  CD  LYS A 135      30.119  34.141   9.060  1.00 32.00     0.041 C 
BRANCH   4   5
ATOM      5  CE  LYS A 135      28.668  34.319   8.657  1.00 34.25     0.338 C 
ATOM      6  NZ  LYS A 135      28.548  35.186   7.453  1.00 35.99     0.618 N 
ENDBRANCH   4   5
ENDBRANCH   3   4
ENDBRANCH   2   3
ENDBRANCH   1   2
END_RES LYS A 135
BEGIN_RES TYR A 136
REMARK  2 active torsions:
REMARK  status: ('A' for Active; 'I' for Inactive)
REMARK    5  A    between atoms: CA   and  CB  
REMARK    6  A    between atoms: CB   and  CG  
ROOT
ATOM      7  CA  TYR A 136      36.583  36.399   8.994  1.00 26.14     0.191 C 
ENDROOT
BRANCH   7   8
ATOM      8  CB  TYR A 136      37.367  36.835  10.240  1.00 28.16     0.060 C 
BRANCH   8   9
ATOM      9  CG  TYR A 136      37.283  38.321  10.488  1.00 31.88    -0.020 A 
ATOM     10  CD2 TYR A 136      36.514  39.149   9.666  1.00 32.67    -0.002 A 
ATOM     11  CE2 TYR A 136      36.445  40.528   9.904  1.00 33.89     0.027 A 
ATOM     12  CZ  TYR A 136      37.152  41.085  10.973  1.00 34.34     0.131 A 
ATOM     13  OH  TYR A 136      37.092  42.447  11.231  1.00 35.14    -0.190 OA
ATOM     14  CE1 TYR A 136      37.921  40.278  11.798  1.00 35.01     0.027 A 
ATOM     15  CD1 TYR A 136      37.988  38.906  11.547  1.00 33.57    -0.002 A 
ENDBRANCH   8   9
ENDBRANCH   7   8
END_RES TYR A 136
BEGIN_RES ASN A 133
REMARK  2 active torsions:
REMARK  status: ('A' for Active; 'I' for Inactive)
REMARK    7  A    between atoms: CA   and  CB  
REMARK    8  A    between atoms: CB   and  CG  
ROOT
ATOM     16  CA  ASN A 133      31.225  30.257  11.749  1.00 18.15     0.196 C 
ENDROOT
BRANCH  16  17
ATOM     17  CB  ASN A 133      30.092  31.240  11.460  1.00 18.27     0.126 C 
BRANCH  17  18
ATOM     18  CG  ASN A 133      28.750  30.584  11.364  1.00 18.94     0.276 C 
ATOM     19  OD1 ASN A 133      27.805  30.956  12.063  1.00 18.09    -0.269 OA
ATOM     20  ND2 ASN A 133      28.650  29.586  10.487  1.00 18.93    -0.107 N 
ENDBRANCH  17  18
ENDBRANCH  16  17
END_RES ASN A 133
