REMARK VINA RESULT:    -6.503      2.807      5.022
REMARK INTER + INTRA:          -9.034
REMARK INTER:                  -5.740
REMARK INTRA:                  -3.294
REMARK UNBOUND:                -1.391
REMARK SMILES Cc1cn(C(c2ccccc2)c2ccccc2)nn1
REMARK SMILES IDX 5 1 4 2 1 3 2 4 3 5 19 6 18 7 6 8 7 9 11 10 8 11 10 12 9 13
REMARK SMILES IDX 12 14 13 15 17 16 14 17 16 18 15 19
REMARK H PARENT
REMARK Flexibility Score: inf
ROOT
ATOM      1  C   UNL     1      38.686  35.674  14.534  1.00  0.00     0.169 C 
ENDROOT
BRANCH   1   2
ATOM      2  N   UNL     1      39.079  35.044  15.793  1.00  0.00    -0.240 N 
ATOM      3  C   UNL     1      38.859  32.757  18.635  1.00  0.00     0.070 C 
ATOM      4  C   UNL     1      39.154  33.756  17.602  1.00  0.00     0.080 A 
ATOM      5  C   UNL     1      38.441  34.057  16.447  1.00  0.00     0.135 A 
ATOM      6  N   UNL     1      40.207  34.593  17.591  1.00  0.00    -0.136 NA
ATOM      7  N   UNL     1      40.144  35.346  16.511  1.00  0.00    -0.066 NA
ENDBRANCH   1   2
BRANCH   1   8
ATOM      8  C   UNL     1      37.295  35.369  14.141  1.00  0.00    -0.019 A 
ATOM      9  C   UNL     1      36.963  34.488  13.147  1.00  0.00     0.006 A 
ATOM     10  C   UNL     1      36.234  35.987  14.799  1.00  0.00     0.006 A 
ATOM     11  C   UNL     1      35.621  34.245  12.834  1.00  0.00     0.000 A 
ATOM     12  C   UNL     1      34.918  35.750  14.493  1.00  0.00     0.000 A 
ATOM     13  C   UNL     1      34.596  34.869  13.499  1.00  0.00     0.000 A 
ENDBRANCH   1   8
BRANCH   1  14
ATOM     14  C   UNL     1      39.680  35.457  13.481  1.00  0.00    -0.019 A 
ATOM     15  C   UNL     1      39.990  36.373  12.499  1.00  0.00     0.006 A 
ATOM     16  C   UNL     1      40.391  34.272  13.441  1.00  0.00     0.006 A 
ATOM     17  C   UNL     1      40.938  36.108  11.559  1.00  0.00     0.000 A 
ATOM     18  C   UNL     1      41.355  33.980  12.502  1.00  0.00     0.000 A 
ATOM     19  C   UNL     1      41.624  34.918  11.553  1.00  0.00     0.000 A 
ENDBRANCH   1  14
TORSDOF 3
BEGIN_RES LYS A 135
REMARK  4 active torsions:
REMARK  status: ('A' for Active; 'I' for Inactive)
REMARK    1  A    between atoms: CA   and  CB  
REMARK    2  A    between atoms: CB   and  CG  
REMARK    3  A    between atoms: CG   and  CD  
REMARK    4  A    between atoms: CD   and  CE  
ROOT
ATOM      1  CA  LYS A 135      33.193  34.663   9.290  1.00 25.02     0.186 C 
ENDROOT
BRANCH   1   2
ATOM      2  CB  LYS A 135      32.060  35.360  10.034  1.00 26.63     0.034 C 
BRANCH   2   3
ATOM      3  CG  LYS A 135      30.704  34.758   9.768  1.00 29.45     0.005 C 
BRANCH   3   4
ATOM      4  CD  LYS A 135      30.485  34.568   8.275  1.00 32.00     0.041 C 
BRANCH   4   5
ATOM      5  CE  LYS A 135      29.089  35.013   7.882  1.00 34.25     0.338 C 
ATOM      6  NZ  LYS A 135      28.053  34.290   8.670  1.00 35.99     0.618 N 
ENDBRANCH   4   5
ENDBRANCH   3   4
ENDBRANCH   2   3
ENDBRANCH   1   2
END_RES LYS A 135
BEGIN_RES TYR A 136
REMARK  2 active torsions:
REMARK  status: ('A' for Active; 'I' for Inactive)
REMARK    5  A    between atoms: CA   and  CB  
REMARK    6  A    between atoms: CB   and  CG  
ROOT
ATOM      7  CA  TYR A 136      36.583  36.399   8.994  1.00 26.14     0.191 C 
ENDROOT
BRANCH   7   8
ATOM      8  CB  TYR A 136      37.367  36.835  10.240  1.00 28.16     0.060 C 
BRANCH   8   9
ATOM      9  CG  TYR A 136      36.866  38.137  10.815  1.00 31.88    -0.020 A 
ATOM     10  CD2 TYR A 136      37.399  39.361  10.404  1.00 32.67    -0.002 A 
ATOM     11  CE2 TYR A 136      36.928  40.565  10.945  1.00 33.89     0.027 A 
ATOM     12  CZ  TYR A 136      35.914  40.544  11.906  1.00 34.34     0.131 A 
ATOM     13  OH  TYR A 136      35.427  41.724  12.451  1.00 35.14    -0.190 OA
ATOM     14  CE1 TYR A 136      35.374  39.337  12.326  1.00 35.01     0.027 A 
ATOM     15  CD1 TYR A 136      35.856  38.144  11.785  1.00 33.57    -0.002 A 
ENDBRANCH   8   9
ENDBRANCH   7   8
END_RES TYR A 136
BEGIN_RES ASN A 133
REMARK  2 active torsions:
REMARK  status: ('A' for Active; 'I' for Inactive)
REMARK    7  A    between atoms: CA   and  CB  
REMARK    8  A    between atoms: CB   and  CG  
ROOT
ATOM     16  CA  ASN A 133      31.225  30.257  11.749  1.00 18.15     0.196 C 
ENDROOT
BRANCH  16  17
ATOM     17  CB  ASN A 133      30.092  31.240  11.460  1.00 18.27     0.126 C 
BRANCH  17  18
ATOM     18  CG  ASN A 133      28.757  30.578  11.315  1.00 18.94     0.276 C 
ATOM     19  OD1 ASN A 133      28.603  29.607  10.572  1.00 18.09    -0.269 OA
ATOM     20  ND2 ASN A 133      27.765  31.104  12.032  1.00 18.93    -0.107 N 
ENDBRANCH  17  18
ENDBRANCH  16  17
END_RES ASN A 133
