REMARK VINA RESULT:    -5.112      4.406      7.734
REMARK INTER + INTRA:          -6.724
REMARK INTER:                  -4.752
REMARK INTRA:                  -1.972
REMARK UNBOUND:                -1.313
REMARK SMILES Cc1cn(-c2ccccc2I)nn1
REMARK SMILES IDX 5 1 6 2 7 3 8 4 9 5 10 6 11 7 4 8 1 9 2 10 3 11 13 12 12 13
REMARK H PARENT
REMARK Flexibility Score: inf
ROOT
ATOM      1  C   UNL     1      26.238  36.083   8.268  1.00  0.00     0.080 A 
ATOM      2  C   UNL     1      27.125  35.083   7.927  1.00  0.00     0.029 A 
ATOM      3  C   UNL     1      28.018  35.215   6.874  1.00  0.00     0.002 A 
ATOM      4  C   UNL     1      28.035  36.388   6.125  1.00  0.00     0.001 A 
ATOM      5  C   UNL     1      27.154  37.401   6.451  1.00  0.00     0.017 A 
ATOM      6  C   UNL     1      26.277  37.243   7.503  1.00  0.00     0.039 A 
ATOM      7  I   UNL     1      24.945  38.810   7.974  1.00  0.00    -0.042 I 
ENDROOT
BRANCH   1   8
ATOM      8  N   UNL     1      25.323  35.928   9.357  1.00  0.00    -0.219 N 
ATOM      9  C   UNL     1      22.272  35.097  11.140  1.00  0.00     0.070 C 
ATOM     10  C   UNL     1      23.620  35.512  10.640  1.00  0.00     0.080 A 
ATOM     11  C   UNL     1      24.078  35.463   9.347  1.00  0.00     0.140 A 
ATOM     12  N   UNL     1      24.622  36.010  11.383  1.00  0.00    -0.135 NA
ATOM     13  N   UNL     1      25.635  36.254  10.601  1.00  0.00    -0.062 NA
ENDBRANCH   1   8
TORSDOF 1
BEGIN_RES LYS A 135
REMARK  4 active torsions:
REMARK  status: ('A' for Active; 'I' for Inactive)
REMARK    1  A    between atoms: CA   and  CB  
REMARK    2  A    between atoms: CB   and  CG  
REMARK    3  A    between atoms: CG   and  CD  
REMARK    4  A    between atoms: CD   and  CE  
ROOT
ATOM      1  CA  LYS A 135      33.193  34.663   9.290  1.00 25.02     0.186 C 
ENDROOT
BRANCH   1   2
ATOM      2  CB  LYS A 135      32.060  35.360  10.034  1.00 26.63     0.034 C 
BRANCH   2   3
ATOM      3  CG  LYS A 135      30.791  35.473   9.230  1.00 29.45     0.005 C 
BRANCH   3   4
ATOM      4  CD  LYS A 135      30.396  36.931   9.052  1.00 32.00     0.041 C 
BRANCH   4   5
ATOM      5  CE  LYS A 135      29.303  37.310  10.032  1.00 34.25     0.338 C 
ATOM      6  NZ  LYS A 135      28.717  38.637   9.696  1.00 35.99     0.618 N 
ENDBRANCH   4   5
ENDBRANCH   3   4
ENDBRANCH   2   3
ENDBRANCH   1   2
END_RES LYS A 135
BEGIN_RES TYR A 136
REMARK  2 active torsions:
REMARK  status: ('A' for Active; 'I' for Inactive)
REMARK    5  A    between atoms: CA   and  CB  
REMARK    6  A    between atoms: CB   and  CG  
ROOT
ATOM      7  CA  TYR A 136      36.583  36.399   8.994  1.00 26.14     0.191 C 
ENDROOT
BRANCH   7   8
ATOM      8  CB  TYR A 136      37.367  36.835  10.240  1.00 28.16     0.060 C 
BRANCH   8   9
ATOM      9  CG  TYR A 136      36.840  38.116  10.838  1.00 31.88    -0.020 A 
ATOM     10  CD2 TYR A 136      36.688  38.260  12.219  1.00 32.67    -0.002 A 
ATOM     11  CE2 TYR A 136      36.195  39.453  12.765  1.00 33.89     0.027 A 
ATOM     12  CZ  TYR A 136      35.852  40.512  11.921  1.00 34.34     0.131 A 
ATOM     13  OH  TYR A 136      35.369  41.706  12.440  1.00 35.14    -0.190 OA
ATOM     14  CE1 TYR A 136      35.995  40.386  10.547  1.00 35.01     0.027 A 
ATOM     15  CD1 TYR A 136      36.481  39.190  10.015  1.00 33.57    -0.002 A 
ENDBRANCH   8   9
ENDBRANCH   7   8
END_RES TYR A 136
BEGIN_RES ASN A 133
REMARK  2 active torsions:
REMARK  status: ('A' for Active; 'I' for Inactive)
REMARK    7  A    between atoms: CA   and  CB  
REMARK    8  A    between atoms: CB   and  CG  
ROOT
ATOM     16  CA  ASN A 133      31.225  30.257  11.749  1.00 18.15     0.196 C 
ENDROOT
BRANCH  16  17
ATOM     17  CB  ASN A 133      30.092  31.240  11.460  1.00 18.27     0.126 C 
BRANCH  17  18
ATOM     18  CG  ASN A 133      28.751  30.583  11.357  1.00 18.94     0.276 C 
ATOM     19  OD1 ASN A 133      28.568  29.617  10.613  1.00 18.09    -0.269 OA
ATOM     20  ND2 ASN A 133      27.785  31.107  12.111  1.00 18.93    -0.107 N 
ENDBRANCH  17  18
ENDBRANCH  16  17
END_RES ASN A 133
