REMARK VINA RESULT:    -4.043      3.219      4.695
REMARK INTER + INTRA:          -7.423
REMARK INTER:                  -4.141
REMARK INTRA:                  -3.283
REMARK UNBOUND:                -2.907
REMARK SMILES Cc1cn(Cc2ccccc2Br)nn1
REMARK SMILES IDX 5 1 4 2 1 3 2 4 3 5 14 6 13 7 6 8 7 9 11 10 8 11 10 12 12 13
REMARK SMILES IDX 9 14
REMARK H PARENT
REMARK Flexibility Score: inf
ROOT
ATOM      1  C   UNL     1      29.645  30.933  18.542  1.00  0.00     0.182 C 
ENDROOT
BRANCH   1   2
ATOM      2  N   UNL     1      28.272  30.702  18.148  1.00  0.00    -0.248 N 
ATOM      3  C   UNL     1      25.427  28.538  17.283  1.00  0.00     0.070 C 
ATOM      4  C   UNL     1      26.413  29.632  17.593  1.00  0.00     0.080 A 
ATOM      5  C   UNL     1      27.725  29.477  17.956  1.00  0.00     0.134 A 
ATOM      6  N   UNL     1      26.186  30.977  17.571  1.00  0.00    -0.136 NA
ATOM      7  N   UNL     1      27.325  31.551  17.908  1.00  0.00    -0.067 NA
ENDBRANCH   1   2
BRANCH   1   8
ATOM      8  C   UNL     1      30.370  31.837  17.627  1.00  0.00    -0.012 A 
ATOM      9  C   UNL     1      30.569  31.435  16.329  1.00  0.00     0.007 A 
ATOM     10  C   UNL     1      30.842  33.070  18.087  1.00  0.00     0.023 A 
ATOM     11  C   UNL     1      31.247  32.259  15.459  1.00  0.00     0.000 A 
ATOM     12  C   UNL     1      31.520  33.887  17.210  1.00  0.00     0.016 A 
ATOM     13  Br  UNL     1      30.510  33.524  19.904  1.00  0.00    -0.050 Br
ATOM     14  C   UNL     1      31.707  33.472  15.928  1.00  0.00     0.001 A 
ENDBRANCH   1   8
TORSDOF 2
BEGIN_RES LYS A 135
REMARK  4 active torsions:
REMARK  status: ('A' for Active; 'I' for Inactive)
REMARK    1  A    between atoms: CA   and  CB  
REMARK    2  A    between atoms: CB   and  CG  
REMARK    3  A    between atoms: CG   and  CD  
REMARK    4  A    between atoms: CD   and  CE  
ROOT
ATOM      1  CA  LYS A 135      33.193  34.663   9.290  1.00 25.02     0.186 C 
ENDROOT
BRANCH   1   2
ATOM      2  CB  LYS A 135      32.060  35.360  10.034  1.00 26.63     0.034 C 
BRANCH   2   3
ATOM      3  CG  LYS A 135      30.706  34.750   9.778  1.00 29.45     0.005 C 
BRANCH   3   4
ATOM      4  CD  LYS A 135      30.459  34.599   8.285  1.00 32.00     0.041 C 
BRANCH   4   5
ATOM      5  CE  LYS A 135      29.002  34.859   7.956  1.00 34.25     0.338 C 
ATOM      6  NZ  LYS A 135      28.861  35.526   6.633  1.00 35.99     0.618 N 
ENDBRANCH   4   5
ENDBRANCH   3   4
ENDBRANCH   2   3
ENDBRANCH   1   2
END_RES LYS A 135
BEGIN_RES TYR A 136
REMARK  2 active torsions:
REMARK  status: ('A' for Active; 'I' for Inactive)
REMARK    5  A    between atoms: CA   and  CB  
REMARK    6  A    between atoms: CB   and  CG  
ROOT
ATOM      7  CA  TYR A 136      36.583  36.399   8.994  1.00 26.14     0.191 C 
ENDROOT
BRANCH   7   8
ATOM      8  CB  TYR A 136      37.367  36.835  10.240  1.00 28.16     0.060 C 
BRANCH   8   9
ATOM      9  CG  TYR A 136      37.220  38.308  10.532  1.00 31.88    -0.020 A 
ATOM     10  CD2 TYR A 136      36.268  38.773  11.442  1.00 32.67    -0.002 A 
ATOM     11  CE2 TYR A 136      36.138  40.144  11.705  1.00 33.89     0.027 A 
ATOM     12  CZ  TYR A 136      36.968  41.057  11.051  1.00 34.34     0.131 A 
ATOM     13  OH  TYR A 136      36.862  42.418  11.302  1.00 35.14    -0.190 OA
ATOM     14  CE1 TYR A 136      37.918  40.613  10.144  1.00 35.01     0.027 A 
ATOM     15  CD1 TYR A 136      38.034  39.246   9.885  1.00 33.57    -0.002 A 
ENDBRANCH   8   9
ENDBRANCH   7   8
END_RES TYR A 136
BEGIN_RES ASN A 133
REMARK  2 active torsions:
REMARK  status: ('A' for Active; 'I' for Inactive)
REMARK    7  A    between atoms: CA   and  CB  
REMARK    8  A    between atoms: CB   and  CG  
ROOT
ATOM     16  CA  ASN A 133      31.225  30.257  11.749  1.00 18.15     0.196 C 
ENDROOT
BRANCH  16  17
ATOM     17  CB  ASN A 133      30.092  31.240  11.460  1.00 18.27     0.126 C 
BRANCH  17  18
ATOM     18  CG  ASN A 133      28.756  30.579  11.322  1.00 18.94     0.276 C 
ATOM     19  OD1 ASN A 133      28.595  29.615  10.570  1.00 18.09    -0.269 OA
ATOM     20  ND2 ASN A 133      27.770  31.097  12.053  1.00 18.93    -0.107 N 
ENDBRANCH  17  18
ENDBRANCH  16  17
END_RES ASN A 133
