REMARK VINA RESULT:    -4.983      4.943      8.263
REMARK INTER + INTRA:          -9.781
REMARK INTER:                  -5.984
REMARK INTRA:                  -3.796
REMARK UNBOUND:                -3.778
REMARK SMILES Cc1cn(-c2ccc(-c3c4ccc(=O)cc-4oc4cc(O)ccc34)c(C(=O)[O-])c2)nn1
REMARK SMILES IDX 9 1 24 2 23 3 22 4 20 5 19 6 18 7 17 8 16 9 15 10 13 11
REMARK SMILES IDX 14 12 12 13 11 14 10 15 8 16 5 17 29 18 6 19 25 20 7 21 4 22
REMARK SMILES IDX 1 23 2 24 3 25 31 26 30 27 26 28 27 29 28 30 21 31
REMARK H PARENT 21 32
REMARK Flexibility Score: inf
ROOT
ATOM      1  C   UNL     1      29.361  29.689  19.531  1.00  0.00     0.004 A 
ATOM      2  C   UNL     1      30.289  29.033  20.310  1.00  0.00     0.026 A 
ATOM      3  C   UNL     1      31.549  29.568  20.472  1.00  0.00     0.016 A 
ATOM      4  C   UNL     1      32.514  28.941  21.246  1.00  0.00     0.047 A 
ATOM      5  C   UNL     1      32.180  27.753  21.859  1.00  0.00     0.119 A 
ATOM      6  C   UNL     1      30.920  27.216  21.698  1.00  0.00     0.093 A 
ATOM      7  C   UNL     1      29.939  27.837  20.922  1.00  0.00     0.139 A 
ATOM      8  O   UNL     1      28.749  27.298  20.789  1.00  0.00    -0.456 OA
ATOM      9  C   UNL     1      27.810  27.839  20.080  1.00  0.00     0.139 A 
ATOM     10  C   UNL     1      26.554  27.305  19.919  1.00  0.00     0.099 A 
ATOM     11  C   UNL     1      25.642  27.976  19.138  1.00  0.00     0.182 A 
ATOM     12  O   UNL     1      24.498  27.479  18.997  1.00  0.00    -0.290 OA
ATOM     13  C   UNL     1      25.940  29.170  18.506  1.00  0.00     0.053 A 
ATOM     14  C   UNL     1      27.178  29.762  18.624  1.00  0.00     0.016 A 
ATOM     15  C   UNL     1      28.117  29.108  19.405  1.00  0.00     0.026 A 
ENDROOT
BRANCH   1  16
ATOM     16  C   UNL     1      29.734  30.936  18.897  1.00  0.00    -0.008 A 
ATOM     17  C   UNL     1      30.431  33.378  17.734  1.00  0.00     0.067 A 
ATOM     18  C   UNL     1      29.877  33.351  18.996  1.00  0.00     0.039 A 
ATOM     19  C   UNL     1      30.642  32.194  17.043  1.00  0.00     0.029 A 
ATOM     20  C   UNL     1      29.538  32.132  19.555  1.00  0.00     0.007 A 
ATOM     21  C   UNL     1      30.291  30.991  17.633  1.00  0.00     0.012 A 
BRANCH  17  22
ATOM     22  N   UNL     1      30.799  34.601  17.109  1.00  0.00    -0.220 N 
ATOM     23  C   UNL     1      33.279  36.903  15.658  1.00  0.00     0.070 C 
ATOM     24  C   UNL     1      32.085  36.176  16.180  1.00  0.00     0.080 A 
ATOM     25  C   UNL     1      32.079  34.925  16.762  1.00  0.00     0.140 A 
ATOM     26  N   UNL     1      30.800  36.575  16.191  1.00  0.00    -0.135 NA
ATOM     27  N   UNL     1      30.063  35.616  16.750  1.00  0.00    -0.062 NA
ENDBRANCH  17  22
BRANCH  20  28
ATOM     28  C   UNL     1      28.953  32.118  20.891  1.00  0.00     0.072 C 
ATOM     29  O   UNL     1      27.715  32.176  21.070  1.00  0.00    -0.545 OA
ATOM     30  O   UNL     1      29.755  32.036  22.021  1.00  0.00    -0.545 OA
ENDBRANCH  20  28
ENDBRANCH   1  16
BRANCH   5  31
ATOM     31  O   UNL     1      33.150  27.111  22.646  1.00  0.00    -0.508 OA
ATOM     32  H   UNL     1      33.423  26.162  22.434  1.00  0.00     0.293 HD
ENDBRANCH   5  31
TORSDOF 4
BEGIN_RES LYS A 135
REMARK  4 active torsions:
REMARK  status: ('A' for Active; 'I' for Inactive)
REMARK    1  A    between atoms: CA   and  CB  
REMARK    2  A    between atoms: CB   and  CG  
REMARK    3  A    between atoms: CG   and  CD  
REMARK    4  A    between atoms: CD   and  CE  
ROOT
ATOM      1  CA  LYS A 135      33.193  34.663   9.290  1.00 25.02     0.186 C 
ENDROOT
BRANCH   1   2
ATOM      2  CB  LYS A 135      32.060  35.360  10.034  1.00 26.63     0.034 C 
BRANCH   2   3
ATOM      3  CG  LYS A 135      30.706  34.751   9.776  1.00 29.45     0.005 C 
BRANCH   3   4
ATOM      4  CD  LYS A 135      30.476  34.565   8.284  1.00 32.00     0.041 C 
BRANCH   4   5
ATOM      5  CE  LYS A 135      29.026  34.831   7.931  1.00 34.25     0.338 C 
ATOM      6  NZ  LYS A 135      28.914  35.574   6.646  1.00 35.99     0.618 N 
ENDBRANCH   4   5
ENDBRANCH   3   4
ENDBRANCH   2   3
ENDBRANCH   1   2
END_RES LYS A 135
BEGIN_RES TYR A 136
REMARK  2 active torsions:
REMARK  status: ('A' for Active; 'I' for Inactive)
REMARK    5  A    between atoms: CA   and  CB  
REMARK    6  A    between atoms: CB   and  CG  
ROOT
ATOM      7  CA  TYR A 136      36.583  36.399   8.994  1.00 26.14     0.191 C 
ENDROOT
BRANCH   7   8
ATOM      8  CB  TYR A 136      37.367  36.835  10.240  1.00 28.16     0.060 C 
BRANCH   8   9
ATOM      9  CG  TYR A 136      37.177  38.296  10.563  1.00 31.88    -0.020 A 
ATOM     10  CD2 TYR A 136      37.162  39.264   9.556  1.00 32.67    -0.002 A 
ATOM     11  CE2 TYR A 136      36.986  40.619   9.867  1.00 33.89     0.027 A 
ATOM     12  CZ  TYR A 136      36.824  41.010  11.199  1.00 34.34     0.131 A 
ATOM     13  OH  TYR A 136      36.641  42.345  11.530  1.00 35.14    -0.190 OA
ATOM     14  CE1 TYR A 136      36.837  40.062  12.212  1.00 35.01     0.027 A 
ATOM     15  CD1 TYR A 136      37.019  38.716  11.890  1.00 33.57    -0.002 A 
ENDBRANCH   8   9
ENDBRANCH   7   8
END_RES TYR A 136
BEGIN_RES ASN A 133
REMARK  2 active torsions:
REMARK  status: ('A' for Active; 'I' for Inactive)
REMARK    7  A    between atoms: CA   and  CB  
REMARK    8  A    between atoms: CB   and  CG  
ROOT
ATOM     16  CA  ASN A 133      31.225  30.257  11.749  1.00 18.15     0.196 C 
ENDROOT
BRANCH  16  17
ATOM     17  CB  ASN A 133      30.092  31.240  11.460  1.00 18.27     0.126 C 
BRANCH  17  18
ATOM     18  CG  ASN A 133      28.750  30.584  11.362  1.00 18.94     0.276 C 
ATOM     19  OD1 ASN A 133      28.567  29.610  10.629  1.00 18.09    -0.269 OA
ATOM     20  ND2 ASN A 133      27.784  31.118  12.109  1.00 18.93    -0.107 N 
ENDBRANCH  17  18
ENDBRANCH  16  17
END_RES ASN A 133
