REMARK VINA RESULT:    -5.624      0.000      0.000
REMARK INTER + INTRA:         -11.574
REMARK INTER:                  -8.096
REMARK INTRA:                  -3.478
REMARK UNBOUND:                -3.812
REMARK SMILES Cc1cn(C[C@@H](C(=O)O)C(c2ccccc2)c2ccccc2)nn1
REMARK SMILES IDX 6 1 5 2 4 3 1 4 2 5 3 6 24 7 23 8 7 9 8 10 9 11 10 13 11 14
REMARK SMILES IDX 12 15 16 16 13 17 15 18 14 19 17 20 18 21 22 22 19 23 21 24
REMARK SMILES IDX 20 25
REMARK H PARENT 9 12
REMARK Flexibility Score: inf
ROOT
ATOM      1  C   UNL     1      32.101  36.125  13.639  1.00  0.00     0.132 C 
ENDROOT
BRANCH   1   2
ATOM      2  C   UNL     1      30.656  36.254  13.992  1.00  0.00     0.162 C 
BRANCH   2   3
ATOM      3  N   UNL     1      29.814  35.597  13.021  1.00  0.00    -0.251 N 
ATOM      4  C   UNL     1      26.955  35.386  10.755  1.00  0.00     0.070 C 
ATOM      5  C   UNL     1      28.173  35.281  11.614  1.00  0.00     0.080 A 
ATOM      6  C   UNL     1      28.699  36.170  12.492  1.00  0.00     0.134 A 
ATOM      7  N   UNL     1      28.967  34.194  11.625  1.00  0.00    -0.136 NA
ATOM      8  N   UNL     1      29.942  34.401  12.469  1.00  0.00    -0.067 NA
ENDBRANCH   2   3
ENDBRANCH   1   2
BRANCH   1   9
ATOM      9  C   UNL     1      32.611  37.347  13.015  1.00  0.00     0.309 C 
ATOM     10  O   UNL     1      32.574  38.427  13.669  1.00  0.00    -0.252 OA
BRANCH   9  11
ATOM     11  O   UNL     1      33.139  37.349  11.715  1.00  0.00    -0.481 OA
ATOM     12  H   UNL     1      33.089  38.239  11.198  1.00  0.00     0.296 HD
ENDBRANCH   9  11
ENDBRANCH   1   9
BRANCH   1  13
ATOM     13  C   UNL     1      32.905  35.877  14.913  1.00  0.00     0.065 C 
BRANCH  13  14
ATOM     14  C   UNL     1      32.272  34.850  15.785  1.00  0.00    -0.040 A 
ATOM     15  C   UNL     1      31.965  35.045  17.110  1.00  0.00     0.004 A 
ATOM     16  C   UNL     1      31.984  33.622  15.198  1.00  0.00     0.004 A 
ATOM     17  C   UNL     1      31.376  34.019  17.831  1.00  0.00     0.000 A 
ATOM     18  C   UNL     1      31.394  32.614  15.945  1.00  0.00     0.000 A 
ATOM     19  C   UNL     1      31.090  32.809  17.258  1.00  0.00     0.000 A 
ENDBRANCH  13  14
BRANCH  13  20
ATOM     20  C   UNL     1      34.289  35.482  14.556  1.00  0.00    -0.040 A 
ATOM     21  C   UNL     1      35.354  35.867  15.346  1.00  0.00     0.004 A 
ATOM     22  C   UNL     1      34.556  34.715  13.445  1.00  0.00     0.004 A 
ATOM     23  C   UNL     1      36.660  35.531  15.088  1.00  0.00     0.000 A 
ATOM     24  C   UNL     1      35.867  34.359  13.158  1.00  0.00     0.000 A 
ATOM     25  C   UNL     1      36.890  34.756  13.957  1.00  0.00     0.000 A 
ENDBRANCH  13  20
ENDBRANCH   1  13
TORSDOF 7
BEGIN_RES LYS A 135
REMARK  4 active torsions:
REMARK  status: ('A' for Active; 'I' for Inactive)
REMARK    1  A    between atoms: CA   and  CB  
REMARK    2  A    between atoms: CB   and  CG  
REMARK    3  A    between atoms: CG   and  CD  
REMARK    4  A    between atoms: CD   and  CE  
ROOT
ATOM      1  CA  LYS A 135      33.193  34.663   9.290  1.00 25.02     0.186 C 
ENDROOT
BRANCH   1   2
ATOM      2  CB  LYS A 135      32.060  35.360  10.034  1.00 26.63     0.034 C 
BRANCH   2   3
ATOM      3  CG  LYS A 135      30.914  35.765   9.143  1.00 29.45     0.005 C 
BRANCH   3   4
ATOM      4  CD  LYS A 135      30.393  34.569   8.362  1.00 32.00     0.041 C 
BRANCH   4   5
ATOM      5  CE  LYS A 135      29.085  34.910   7.674  1.00 34.25     0.338 C 
ATOM      6  NZ  LYS A 135      28.817  36.374   7.728  1.00 35.99     0.618 N 
ENDBRANCH   4   5
ENDBRANCH   3   4
ENDBRANCH   2   3
ENDBRANCH   1   2
END_RES LYS A 135
BEGIN_RES TYR A 136
REMARK  2 active torsions:
REMARK  status: ('A' for Active; 'I' for Inactive)
REMARK    5  A    between atoms: CA   and  CB  
REMARK    6  A    between atoms: CB   and  CG  
ROOT
ATOM      7  CA  TYR A 136      36.583  36.399   8.994  1.00 26.14     0.191 C 
ENDROOT
BRANCH   7   8
ATOM      8  CB  TYR A 136      37.367  36.835  10.240  1.00 28.16     0.060 C 
BRANCH   8   9
ATOM      9  CG  TYR A 136      36.692  37.960  10.986  1.00 31.88    -0.020 A 
ATOM     10  CD2 TYR A 136      36.103  39.028  10.305  1.00 32.67    -0.002 A 
ATOM     11  CE2 TYR A 136      35.480  40.068  11.008  1.00 33.89     0.027 A 
ATOM     12  CZ  TYR A 136      35.447  40.041  12.404  1.00 34.34     0.131 A 
ATOM     13  OH  TYR A 136      34.830  41.057  13.120  1.00 35.14    -0.190 OA
ATOM     14  CE1 TYR A 136      36.029  38.988  13.096  1.00 35.01     0.027 A 
ATOM     15  CD1 TYR A 136      36.652  37.961  12.386  1.00 33.57    -0.002 A 
ENDBRANCH   8   9
ENDBRANCH   7   8
END_RES TYR A 136
BEGIN_RES ASN A 133
REMARK  2 active torsions:
REMARK  status: ('A' for Active; 'I' for Inactive)
REMARK    7  A    between atoms: CA   and  CB  
REMARK    8  A    between atoms: CB   and  CG  
ROOT
ATOM     16  CA  ASN A 133      31.225  30.257  11.749  1.00 18.15     0.196 C 
ENDROOT
BRANCH  16  17
ATOM     17  CB  ASN A 133      30.092  31.240  11.460  1.00 18.27     0.126 C 
BRANCH  17  18
ATOM     18  CG  ASN A 133      28.753  30.581  11.338  1.00 18.94     0.276 C 
ATOM     19  OD1 ASN A 133      28.574  29.639  10.563  1.00 18.09    -0.269 OA
ATOM     20  ND2 ASN A 133      27.787  31.075  12.110  1.00 18.93    -0.107 N 
ENDBRANCH  17  18
ENDBRANCH  16  17
END_RES ASN A 133
