REMARK VINA RESULT:    -4.331      6.371      8.938
REMARK INTER + INTRA:          -8.326
REMARK INTER:                  -5.034
REMARK INTRA:                  -3.292
REMARK UNBOUND:                -3.109
REMARK SMILES Cc1cn(Cc2ccc(C(=O)O)cc2)nn1
REMARK SMILES IDX 6 1 7 2 8 3 9 4 13 5 14 6 5 7 4 8 1 9 2 10 3 11 16 12 15 13
REMARK SMILES IDX 10 14 11 15 12 16
REMARK H PARENT 12 17
REMARK Flexibility Score: inf
ROOT
ATOM      1  C   UNL     1      35.171  38.849   4.801  1.00  0.00    -0.026 A 
ATOM      2  C   UNL     1      36.258  38.026   4.960  1.00  0.00     0.006 A 
ATOM      3  C   UNL     1      36.943  37.594   3.847  1.00  0.00     0.016 A 
ATOM      4  C   UNL     1      36.597  37.947   2.561  1.00  0.00     0.059 A 
ATOM      5  C   UNL     1      35.495  38.778   2.454  1.00  0.00     0.016 A 
ATOM      6  C   UNL     1      34.789  39.225   3.546  1.00  0.00     0.006 A 
ENDROOT
BRANCH   1   7
ATOM      7  C   UNL     1      34.396  39.343   5.976  1.00  0.00     0.181 C 
BRANCH   7   8
ATOM      8  N   UNL     1      34.713  40.747   6.182  1.00  0.00    -0.248 N 
ATOM      9  C   UNL     1      33.960  44.342   6.452  1.00  0.00     0.070 C 
ATOM     10  C   UNL     1      34.481  42.956   6.386  1.00  0.00     0.080 A 
ATOM     11  C   UNL     1      33.825  41.777   6.149  1.00  0.00     0.134 A 
ATOM     12  N   UNL     1      35.775  42.615   6.561  1.00  0.00    -0.136 NA
ATOM     13  N   UNL     1      35.888  41.298   6.435  1.00  0.00    -0.067 NA
ENDBRANCH   7   8
ENDBRANCH   1   7
BRANCH   4  14
ATOM     14  C   UNL     1      37.338  37.477   1.399  1.00  0.00     0.335 C 
ATOM     15  O   UNL     1      38.450  38.010   1.169  1.00  0.00    -0.246 OA
BRANCH  14  16
ATOM     16  O   UNL     1      36.888  36.497   0.556  1.00  0.00    -0.478 OA
ATOM     17  H   UNL     1      36.521  35.595   0.868  1.00  0.00     0.297 HD
ENDBRANCH  14  16
ENDBRANCH   4  14
TORSDOF 4
BEGIN_RES LYS A 135
REMARK  4 active torsions:
REMARK  status: ('A' for Active; 'I' for Inactive)
REMARK    1  A    between atoms: CA   and  CB  
REMARK    2  A    between atoms: CB   and  CG  
REMARK    3  A    between atoms: CG   and  CD  
REMARK    4  A    between atoms: CD   and  CE  
ROOT
ATOM      1  CA  LYS A 135      33.193  34.663   9.290  1.00 25.02     0.186 C 
ENDROOT
BRANCH   1   2
ATOM      2  CB  LYS A 135      32.060  35.360  10.034  1.00 26.63     0.034 C 
BRANCH   2   3
ATOM      3  CG  LYS A 135      30.707  34.746   9.782  1.00 29.45     0.005 C 
BRANCH   3   4
ATOM      4  CD  LYS A 135      30.442  34.624   8.290  1.00 32.00     0.041 C 
BRANCH   4   5
ATOM      5  CE  LYS A 135      28.951  34.604   8.013  1.00 34.25     0.338 C 
ATOM      6  NZ  LYS A 135      28.196  34.066   9.179  1.00 35.99     0.618 N 
ENDBRANCH   4   5
ENDBRANCH   3   4
ENDBRANCH   2   3
ENDBRANCH   1   2
END_RES LYS A 135
BEGIN_RES TYR A 136
REMARK  2 active torsions:
REMARK  status: ('A' for Active; 'I' for Inactive)
REMARK    5  A    between atoms: CA   and  CB  
REMARK    6  A    between atoms: CB   and  CG  
ROOT
ATOM      7  CA  TYR A 136      36.583  36.399   8.994  1.00 26.14     0.191 C 
ENDROOT
BRANCH   7   8
ATOM      8  CB  TYR A 136      37.367  36.835  10.240  1.00 28.16     0.060 C 
BRANCH   8   9
ATOM      9  CG  TYR A 136      37.160  38.291  10.576  1.00 31.88    -0.020 A 
ATOM     10  CD2 TYR A 136      36.732  39.203   9.608  1.00 32.67    -0.002 A 
ATOM     11  CE2 TYR A 136      36.544  40.554   9.930  1.00 33.89     0.027 A 
ATOM     12  CZ  TYR A 136      36.787  40.997  11.232  1.00 34.34     0.131 A 
ATOM     13  OH  TYR A 136      36.601  42.329  11.575  1.00 35.14    -0.190 OA
ATOM     14  CE1 TYR A 136      37.213  40.106  12.206  1.00 35.01     0.027 A 
ATOM     15  CD1 TYR A 136      37.403  38.764  11.872  1.00 33.57    -0.002 A 
ENDBRANCH   8   9
ENDBRANCH   7   8
END_RES TYR A 136
BEGIN_RES ASN A 133
REMARK  2 active torsions:
REMARK  status: ('A' for Active; 'I' for Inactive)
REMARK    7  A    between atoms: CA   and  CB  
REMARK    8  A    between atoms: CB   and  CG  
ROOT
ATOM     16  CA  ASN A 133      31.225  30.257  11.749  1.00 18.15     0.196 C 
ENDROOT
BRANCH  16  17
ATOM     17  CB  ASN A 133      30.092  31.240  11.460  1.00 18.27     0.126 C 
BRANCH  17  18
ATOM     18  CG  ASN A 133      28.748  30.586  11.377  1.00 18.94     0.276 C 
ATOM     19  OD1 ASN A 133      28.565  29.590  10.673  1.00 18.09    -0.269 OA
ATOM     20  ND2 ASN A 133      27.781  31.146  12.102  1.00 18.93    -0.107 N 
ENDBRANCH  17  18
ENDBRANCH  16  17
END_RES ASN A 133
