REMARK VINA RESULT:    -4.678      4.974      8.937
REMARK INTER + INTRA:          -7.178
REMARK INTER:                  -4.031
REMARK INTRA:                  -3.147
REMARK UNBOUND:                -2.227
REMARK SMILES Cc1ccc(-n2cc(C)nn2)cc1
REMARK SMILES IDX 5 1 4 2 3 3 2 4 1 5 13 6 12 7 6 8 9 9 8 10 7 11 10 12 11 13
REMARK H PARENT
REMARK Flexibility Score: inf
ROOT
ATOM      1  C   UNL     1      35.189  38.854   4.354  1.00  0.00     0.066 A 
ATOM      2  C   UNL     1      34.898  39.149   3.047  1.00  0.00     0.029 A 
ATOM      3  C   UNL     1      35.718  38.683   2.038  1.00  0.00     0.005 A 
ATOM      4  C   UNL     1      36.842  37.921   2.284  1.00  0.00    -0.051 A 
ATOM      5  C   UNL     1      37.712  37.430   1.183  1.00  0.00     0.044 C 
ATOM      6  C   UNL     1      37.114  37.638   3.612  1.00  0.00     0.005 A 
ATOM      7  C   UNL     1      36.304  38.093   4.637  1.00  0.00     0.029 A 
ENDROOT
BRANCH   1   8
ATOM      8  N   UNL     1      34.369  39.315   5.396  1.00  0.00    -0.220 N 
ATOM      9  C   UNL     1      33.738  40.199   8.868  1.00  0.00     0.070 C 
ATOM     10  C   UNL     1      33.681  39.927   7.400  1.00  0.00     0.080 A 
ATOM     11  C   UNL     1      34.752  39.451   6.680  1.00  0.00     0.140 A 
ATOM     12  N   UNL     1      32.680  40.067   6.542  1.00  0.00    -0.135 NA
ATOM     13  N   UNL     1      33.092  39.701   5.344  1.00  0.00    -0.062 NA
ENDBRANCH   1   8
TORSDOF 1
BEGIN_RES LYS A 135
REMARK  4 active torsions:
REMARK  status: ('A' for Active; 'I' for Inactive)
REMARK    1  A    between atoms: CA   and  CB  
REMARK    2  A    between atoms: CB   and  CG  
REMARK    3  A    between atoms: CG   and  CD  
REMARK    4  A    between atoms: CD   and  CE  
ROOT
ATOM      1  CA  LYS A 135      33.193  34.663   9.290  1.00 25.02     0.186 C 
ENDROOT
BRANCH   1   2
ATOM      2  CB  LYS A 135      32.060  35.360  10.034  1.00 26.63     0.034 C 
BRANCH   2   3
ATOM      3  CG  LYS A 135      30.706  34.750   9.778  1.00 29.45     0.005 C 
BRANCH   3   4
ATOM      4  CD  LYS A 135      30.466  34.583   8.286  1.00 32.00     0.041 C 
BRANCH   4   5
ATOM      5  CE  LYS A 135      29.016  34.866   7.945  1.00 34.25     0.338 C 
ATOM      6  NZ  LYS A 135      28.897  35.534   6.619  1.00 35.99     0.618 N 
ENDBRANCH   4   5
ENDBRANCH   3   4
ENDBRANCH   2   3
ENDBRANCH   1   2
END_RES LYS A 135
BEGIN_RES TYR A 136
REMARK  2 active torsions:
REMARK  status: ('A' for Active; 'I' for Inactive)
REMARK    5  A    between atoms: CA   and  CB  
REMARK    6  A    between atoms: CB   and  CG  
ROOT
ATOM      7  CA  TYR A 136      36.583  36.399   8.994  1.00 26.14     0.191 C 
ENDROOT
BRANCH   7   8
ATOM      8  CB  TYR A 136      37.367  36.835  10.240  1.00 28.16     0.060 C 
BRANCH   8   9
ATOM      9  CG  TYR A 136      37.041  38.245  10.666  1.00 31.88    -0.020 A 
ATOM     10  CD2 TYR A 136      37.621  39.345  10.030  1.00 32.67    -0.002 A 
ATOM     11  CE2 TYR A 136      37.313  40.651  10.435  1.00 33.89     0.027 A 
ATOM     12  CZ  TYR A 136      36.417  40.859  11.486  1.00 34.34     0.131 A 
ATOM     13  OH  TYR A 136      36.092  42.143  11.899  1.00 35.14    -0.190 OA
ATOM     14  CE1 TYR A 136      35.833  39.778  12.130  1.00 35.01     0.027 A 
ATOM     15  CD1 TYR A 136      36.152  38.481  11.723  1.00 33.57    -0.002 A 
ENDBRANCH   8   9
ENDBRANCH   7   8
END_RES TYR A 136
BEGIN_RES ASN A 133
REMARK  2 active torsions:
REMARK  status: ('A' for Active; 'I' for Inactive)
REMARK    7  A    between atoms: CA   and  CB  
REMARK    8  A    between atoms: CB   and  CG  
ROOT
ATOM     16  CA  ASN A 133      31.225  30.257  11.749  1.00 18.15     0.196 C 
ENDROOT
BRANCH  16  17
ATOM     17  CB  ASN A 133      30.092  31.240  11.460  1.00 18.27     0.126 C 
BRANCH  17  18
ATOM     18  CG  ASN A 133      28.749  30.584  11.366  1.00 18.94     0.276 C 
ATOM     19  OD1 ASN A 133      28.565  29.609  10.635  1.00 18.09    -0.269 OA
ATOM     20  ND2 ASN A 133      27.785  31.120  12.114  1.00 18.93    -0.107 N 
ENDBRANCH  17  18
ENDBRANCH  16  17
END_RES ASN A 133
