REMARK VINA RESULT:    -5.357      0.000      0.000
REMARK INTER + INTRA:         -10.126
REMARK INTER:                  -6.750
REMARK INTRA:                  -3.375
REMARK UNBOUND:                -3.516
REMARK SMILES Cc1cn(C(C)CC(=O)c2ccccc2)nn1
REMARK SMILES IDX 7 1 5 2 6 3 4 4 1 5 2 6 3 7 17 8 16 9 8 10 9 11 10 12 11 13
REMARK SMILES IDX 15 14 12 15 14 16 13 17
REMARK H PARENT
REMARK Flexibility Score: inf
ROOT
ATOM      1  C   UNL     1      32.847  34.623  14.438  1.00  0.00     0.108 C 
ENDROOT
BRANCH   1   2
ATOM      2  C   UNL     1      33.757  35.696  13.966  1.00  0.00     0.114 C 
ATOM      3  C   UNL     1      33.424  36.316  12.669  1.00  0.00     0.034 C 
BRANCH   2   4
ATOM      4  N   UNL     1      35.111  35.174  13.959  1.00  0.00    -0.249 N 
ATOM      5  C   UNL     1      37.691  33.122  12.436  1.00  0.00     0.070 C 
ATOM      6  C   UNL     1      36.871  34.017  13.267  1.00  0.00     0.080 A 
ATOM      7  C   UNL     1      35.554  34.335  13.004  1.00  0.00     0.134 A 
ATOM      8  N   UNL     1      37.186  34.688  14.391  1.00  0.00    -0.136 NA
ATOM      9  N   UNL     1      36.111  35.370  14.778  1.00  0.00    -0.067 NA
ENDBRANCH   2   4
ENDBRANCH   1   2
BRANCH   1  10
ATOM     10  C   UNL     1      32.467  34.706  15.855  1.00  0.00     0.164 C 
ATOM     11  O   UNL     1      32.759  35.649  16.615  1.00  0.00    -0.294 OA
BRANCH  10  12
ATOM     12  C   UNL     1      31.690  33.604  16.412  1.00  0.00     0.018 A 
ATOM     13  C   UNL     1      31.287  33.582  17.744  1.00  0.00     0.012 A 
ATOM     14  C   UNL     1      31.301  32.506  15.656  1.00  0.00     0.012 A 
ATOM     15  C   UNL     1      30.553  32.544  18.279  1.00  0.00     0.001 A 
ATOM     16  C   UNL     1      30.578  31.463  16.144  1.00  0.00     0.001 A 
ATOM     17  C   UNL     1      30.198  31.477  17.465  1.00  0.00     0.000 A 
ENDBRANCH  10  12
ENDBRANCH   1  10
TORSDOF 4
BEGIN_RES LYS A 135
REMARK  4 active torsions:
REMARK  status: ('A' for Active; 'I' for Inactive)
REMARK    1  A    between atoms: CA   and  CB  
REMARK    2  A    between atoms: CB   and  CG  
REMARK    3  A    between atoms: CG   and  CD  
REMARK    4  A    between atoms: CD   and  CE  
ROOT
ATOM      1  CA  LYS A 135      33.193  34.663   9.290  1.00 25.02     0.186 C 
ENDROOT
BRANCH   1   2
ATOM      2  CB  LYS A 135      32.060  35.360  10.034  1.00 26.63     0.034 C 
BRANCH   2   3
ATOM      3  CG  LYS A 135      30.708  34.741   9.789  1.00 29.45     0.005 C 
BRANCH   3   4
ATOM      4  CD  LYS A 135      30.478  34.526   8.301  1.00 32.00     0.041 C 
BRANCH   4   5
ATOM      5  CE  LYS A 135      29.027  34.785   7.944  1.00 34.25     0.338 C 
ATOM      6  NZ  LYS A 135      28.917  35.618   6.715  1.00 35.99     0.618 N 
ENDBRANCH   4   5
ENDBRANCH   3   4
ENDBRANCH   2   3
ENDBRANCH   1   2
END_RES LYS A 135
BEGIN_RES TYR A 136
REMARK  2 active torsions:
REMARK  status: ('A' for Active; 'I' for Inactive)
REMARK    5  A    between atoms: CA   and  CB  
REMARK    6  A    between atoms: CB   and  CG  
ROOT
ATOM      7  CA  TYR A 136      36.583  36.399   8.994  1.00 26.14     0.191 C 
ENDROOT
BRANCH   7   8
ATOM      8  CB  TYR A 136      37.367  36.835  10.240  1.00 28.16     0.060 C 
BRANCH   8   9
ATOM      9  CG  TYR A 136      36.632  37.870  11.056  1.00 31.88    -0.020 A 
ATOM     10  CD2 TYR A 136      35.763  38.782  10.453  1.00 32.67    -0.002 A 
ATOM     11  CE2 TYR A 136      35.086  39.741  11.219  1.00 33.89     0.027 A 
ATOM     12  CZ  TYR A 136      35.280  39.787  12.602  1.00 34.34     0.131 A 
ATOM     13  OH  TYR A 136      34.615  40.723  13.381  1.00 35.14    -0.190 OA
ATOM     14  CE1 TYR A 136      36.141  38.889  13.217  1.00 35.01     0.027 A 
ATOM     15  CD1 TYR A 136      36.814  37.943  12.442  1.00 33.57    -0.002 A 
ENDBRANCH   8   9
ENDBRANCH   7   8
END_RES TYR A 136
BEGIN_RES ASN A 133
REMARK  2 active torsions:
REMARK  status: ('A' for Active; 'I' for Inactive)
REMARK    7  A    between atoms: CA   and  CB  
REMARK    8  A    between atoms: CB   and  CG  
ROOT
ATOM     16  CA  ASN A 133      31.225  30.257  11.749  1.00 18.15     0.196 C 
ENDROOT
BRANCH  16  17
ATOM     17  CB  ASN A 133      30.092  31.240  11.460  1.00 18.27     0.126 C 
BRANCH  17  18
ATOM     18  CG  ASN A 133      28.751  30.582  11.351  1.00 18.94     0.276 C 
ATOM     19  OD1 ASN A 133      28.577  29.605  10.620  1.00 18.09    -0.269 OA
ATOM     20  ND2 ASN A 133      27.777  31.119  12.084  1.00 18.93    -0.107 N 
ENDBRANCH  17  18
ENDBRANCH  16  17
END_RES ASN A 133
