REMARK VINA RESULT:    -5.100      5.905      8.190
REMARK INTER + INTRA:          -6.711
REMARK INTER:                  -3.605
REMARK INTRA:                  -3.106
REMARK UNBOUND:                -1.313
REMARK SMILES Cc1cn(-c2ccccc2I)nn1
REMARK SMILES IDX 5 1 6 2 7 3 8 4 9 5 10 6 11 7 4 8 1 9 2 10 3 11 13 12 12 13
REMARK H PARENT
REMARK Flexibility Score: inf
ROOT
ATOM      1  C   UNL     1      37.392  38.203   4.142  1.00  0.00     0.080 A 
ATOM      2  C   UNL     1      36.481  38.287   5.173  1.00  0.00     0.029 A 
ATOM      3  C   UNL     1      35.176  38.713   4.973  1.00  0.00     0.002 A 
ATOM      4  C   UNL     1      34.753  39.071   3.697  1.00  0.00     0.001 A 
ATOM      5  C   UNL     1      35.652  38.993   2.651  1.00  0.00     0.017 A 
ATOM      6  C   UNL     1      36.943  38.567   2.877  1.00  0.00     0.039 A 
ATOM      7  I   UNL     1      38.289  38.460   1.256  1.00  0.00    -0.042 I 
ENDROOT
BRANCH   1   8
ATOM      8  N   UNL     1      38.734  37.762   4.367  1.00  0.00    -0.219 N 
ATOM      9  C   UNL     1      42.262  37.907   5.213  1.00  0.00     0.070 C 
ATOM     10  C   UNL     1      40.851  37.591   4.825  1.00  0.00     0.080 A 
ATOM     11  C   UNL     1      39.795  38.465   4.750  1.00  0.00     0.140 A 
ATOM     12  N   UNL     1      40.375  36.383   4.481  1.00  0.00    -0.135 NA
ATOM     13  N   UNL     1      39.106  36.502   4.210  1.00  0.00    -0.062 NA
ENDBRANCH   1   8
TORSDOF 1
BEGIN_RES LYS A 135
REMARK  4 active torsions:
REMARK  status: ('A' for Active; 'I' for Inactive)
REMARK    1  A    between atoms: CA   and  CB  
REMARK    2  A    between atoms: CB   and  CG  
REMARK    3  A    between atoms: CG   and  CD  
REMARK    4  A    between atoms: CD   and  CE  
ROOT
ATOM      1  CA  LYS A 135      33.193  34.663   9.290  1.00 25.02     0.186 C 
ENDROOT
BRANCH   1   2
ATOM      2  CB  LYS A 135      32.060  35.360  10.034  1.00 26.63     0.034 C 
BRANCH   2   3
ATOM      3  CG  LYS A 135      30.802  35.504   9.217  1.00 29.45     0.005 C 
BRANCH   3   4
ATOM      4  CD  LYS A 135      30.155  34.148   8.984  1.00 32.00     0.041 C 
BRANCH   4   5
ATOM      5  CE  LYS A 135      28.692  34.311   8.620  1.00 34.25     0.338 C 
ATOM      6  NZ  LYS A 135      27.811  33.703   9.655  1.00 35.99     0.618 N 
ENDBRANCH   4   5
ENDBRANCH   3   4
ENDBRANCH   2   3
ENDBRANCH   1   2
END_RES LYS A 135
BEGIN_RES TYR A 136
REMARK  2 active torsions:
REMARK  status: ('A' for Active; 'I' for Inactive)
REMARK    5  A    between atoms: CA   and  CB  
REMARK    6  A    between atoms: CB   and  CG  
ROOT
ATOM      7  CA  TYR A 136      36.583  36.399   8.994  1.00 26.14     0.191 C 
ENDROOT
BRANCH   7   8
ATOM      8  CB  TYR A 136      37.367  36.835  10.240  1.00 28.16     0.060 C 
BRANCH   8   9
ATOM      9  CG  TYR A 136      37.266  38.318  10.499  1.00 31.88    -0.020 A 
ATOM     10  CD2 TYR A 136      36.839  39.199   9.503  1.00 32.67    -0.002 A 
ATOM     11  CE2 TYR A 136      36.751  40.575   9.754  1.00 33.89     0.027 A 
ATOM     12  CZ  TYR A 136      37.093  41.074  11.013  1.00 34.34     0.131 A 
ATOM     13  OH  TYR A 136      37.007  42.433  11.286  1.00 35.14    -0.190 OA
ATOM     14  CE1 TYR A 136      37.521  40.214  12.013  1.00 35.01     0.027 A 
ATOM     15  CD1 TYR A 136      37.611  38.846  11.750  1.00 33.57    -0.002 A 
ENDBRANCH   8   9
ENDBRANCH   7   8
END_RES TYR A 136
BEGIN_RES ASN A 133
REMARK  2 active torsions:
REMARK  status: ('A' for Active; 'I' for Inactive)
REMARK    7  A    between atoms: CA   and  CB  
REMARK    8  A    between atoms: CB   and  CG  
ROOT
ATOM     16  CA  ASN A 133      31.225  30.257  11.749  1.00 18.15     0.196 C 
ENDROOT
BRANCH  16  17
ATOM     17  CB  ASN A 133      30.092  31.240  11.460  1.00 18.27     0.126 C 
BRANCH  17  18
ATOM     18  CG  ASN A 133      28.754  30.580  11.331  1.00 18.94     0.276 C 
ATOM     19  OD1 ASN A 133      28.583  29.628  10.567  1.00 18.09    -0.269 OA
ATOM     20  ND2 ASN A 133      27.780  31.086  12.086  1.00 18.93    -0.107 N 
ENDBRANCH  17  18
ENDBRANCH  16  17
END_RES ASN A 133
