REMARK VINA RESULT:    -5.156      0.000      0.000
REMARK INTER + INTRA:          -8.597
REMARK INTER:                  -5.615
REMARK INTRA:                  -2.982
REMARK UNBOUND:                -2.839
REMARK SMILES Cc1cn(-c2ncn3c2c(=O)n(C(C)C)c2ccccc23)nn1
REMARK SMILES IDX 5 1 6 2 7 3 8 4 21 5 20 6 19 7 18 8 17 9 16 10 12 11 10 12
REMARK SMILES IDX 11 13 9 14 4 15 1 16 2 17 3 18 23 19 22 20 13 21 14 22 15 23
REMARK H PARENT
REMARK Flexibility Score: inf
ROOT
ATOM      1  C   UNL     1      39.501  34.036  12.816  1.00  0.00     0.186 A 
ATOM      2  N   UNL     1      38.785  32.977  12.409  1.00  0.00    -0.216 NA
ATOM      3  C   UNL     1      37.474  33.171  12.631  1.00  0.00     0.207 A 
ATOM      4  N   UNL     1      37.352  34.398  13.200  1.00  0.00    -0.291 N 
ATOM      5  C   UNL     1      36.279  35.106  13.630  1.00  0.00     0.071 A 
ATOM      6  C   UNL     1      35.056  34.493  13.471  1.00  0.00     0.029 A 
ATOM      7  C   UNL     1      33.950  35.193  13.895  1.00  0.00     0.002 A 
ATOM      8  C   UNL     1      34.049  36.444  14.452  1.00  0.00     0.002 A 
ATOM      9  C   UNL     1      35.273  37.036  14.601  1.00  0.00     0.028 A 
ATOM     10  C   UNL     1      36.396  36.358  14.186  1.00  0.00     0.068 A 
ATOM     11  N   UNL     1      37.659  36.884  14.296  1.00  0.00    -0.302 N 
ATOM     12  C   UNL     1      38.732  36.194  13.874  1.00  0.00     0.279 A 
ATOM     13  O   UNL     1      39.917  36.613  13.941  1.00  0.00    -0.267 OA
ATOM     14  C   UNL     1      38.581  34.939  13.320  1.00  0.00     0.158 A 
ENDROOT
BRANCH   1  15
ATOM     15  N   UNL     1      40.931  34.207  12.749  1.00  0.00    -0.200 N 
ATOM     16  C   UNL     1      44.346  33.962  13.961  1.00  0.00     0.070 C 
ATOM     17  C   UNL     1      43.070  34.190  13.223  1.00  0.00     0.080 A 
ATOM     18  C   UNL     1      41.827  33.847  13.685  1.00  0.00     0.142 A 
ATOM     19  N   UNL     1      42.912  34.748  12.025  1.00  0.00    -0.135 NA
ATOM     20  N   UNL     1      41.614  34.750  11.756  1.00  0.00    -0.061 NA
ENDBRANCH   1  15
BRANCH  11  21
ATOM     21  C   UNL     1      37.776  38.175  14.879  1.00  0.00     0.085 C 
ATOM     22  C   UNL     1      38.469  38.111  16.219  1.00  0.00     0.031 C 
ATOM     23  C   UNL     1      38.543  39.162  14.024  1.00  0.00     0.031 C 
ENDBRANCH  11  21
TORSDOF 2
BEGIN_RES LYS A 135
REMARK  4 active torsions:
REMARK  status: ('A' for Active; 'I' for Inactive)
REMARK    1  A    between atoms: CA   and  CB  
REMARK    2  A    between atoms: CB   and  CG  
REMARK    3  A    between atoms: CG   and  CD  
REMARK    4  A    between atoms: CD   and  CE  
ROOT
ATOM      1  CA  LYS A 135      33.193  34.663   9.290  1.00 25.02     0.186 C 
ENDROOT
BRANCH   1   2
ATOM      2  CB  LYS A 135      32.060  35.360  10.034  1.00 26.63     0.034 C 
BRANCH   2   3
ATOM      3  CG  LYS A 135      30.730  34.665   9.895  1.00 29.45     0.005 C 
BRANCH   3   4
ATOM      4  CD  LYS A 135      30.333  34.555   8.431  1.00 32.00     0.041 C 
BRANCH   4   5
ATOM      5  CE  LYS A 135      28.823  34.543   8.289  1.00 34.25     0.338 C 
ATOM      6  NZ  LYS A 135      28.182  33.837   9.433  1.00 35.99     0.618 N 
ENDBRANCH   4   5
ENDBRANCH   3   4
ENDBRANCH   2   3
ENDBRANCH   1   2
END_RES LYS A 135
BEGIN_RES TYR A 136
REMARK  2 active torsions:
REMARK  status: ('A' for Active; 'I' for Inactive)
REMARK    5  A    between atoms: CA   and  CB  
REMARK    6  A    between atoms: CB   and  CG  
ROOT
ATOM      7  CA  TYR A 136      36.583  36.399   8.994  1.00 26.14     0.191 C 
ENDROOT
BRANCH   7   8
ATOM      8  CB  TYR A 136      37.367  36.835  10.240  1.00 28.16     0.060 C 
BRANCH   8   9
ATOM      9  CG  TYR A 136      37.096  38.269  10.623  1.00 31.88    -0.020 A 
ATOM     10  CD2 TYR A 136      37.987  39.289  10.282  1.00 32.67    -0.002 A 
ATOM     11  CE2 TYR A 136      37.727  40.618  10.645  1.00 33.89     0.027 A 
ATOM     12  CZ  TYR A 136      36.566  40.929  11.355  1.00 34.34     0.131 A 
ATOM     13  OH  TYR A 136      36.284  42.239  11.718  1.00 35.14    -0.190 OA
ATOM     14  CE1 TYR A 136      35.670  39.928  11.704  1.00 35.01     0.027 A 
ATOM     15  CD1 TYR A 136      35.943  38.607  11.343  1.00 33.57    -0.002 A 
ENDBRANCH   8   9
ENDBRANCH   7   8
END_RES TYR A 136
BEGIN_RES ASN A 133
REMARK  2 active torsions:
REMARK  status: ('A' for Active; 'I' for Inactive)
REMARK    7  A    between atoms: CA   and  CB  
REMARK    8  A    between atoms: CB   and  CG  
ROOT
ATOM     16  CA  ASN A 133      31.225  30.257  11.749  1.00 18.15     0.196 C 
ENDROOT
BRANCH  16  17
ATOM     17  CB  ASN A 133      30.092  31.240  11.460  1.00 18.27     0.126 C 
BRANCH  17  18
ATOM     18  CG  ASN A 133      28.752  30.582  11.347  1.00 18.94     0.276 C 
ATOM     19  OD1 ASN A 133      28.583  29.598  10.624  1.00 18.09    -0.269 OA
ATOM     20  ND2 ASN A 133      27.773  31.126  12.069  1.00 18.93    -0.107 N 
ENDBRANCH  17  18
ENDBRANCH  16  17
END_RES ASN A 133
