REMARK VINA RESULT:    -3.827      3.555      4.930
REMARK INTER + INTRA:          -7.921
REMARK INTER:                  -4.617
REMARK INTRA:                  -3.303
REMARK UNBOUND:                -3.199
REMARK SMILES COc1ccc(Cn2cc(C)nn2)cc1OC
REMARK SMILES IDX 6 1 14 2 15 3 3 4 4 5 5 6 7 7 8 8 11 9 10 10 9 11 12 12
REMARK SMILES IDX 13 13 16 14 17 15 2 16 1 17
REMARK H PARENT
REMARK Flexibility Score: inf
ROOT
ATOM      1  C   UNL     1      30.752  32.415  15.542  1.00  0.00    -0.023 A 
ATOM      2  C   UNL     1      29.902  32.711  14.499  1.00  0.00     0.056 A 
ATOM      3  C   UNL     1      30.085  33.819  13.686  1.00  0.00     0.161 A 
ATOM      4  C   UNL     1      31.145  34.666  13.910  1.00  0.00     0.160 A 
ATOM      5  C   UNL     1      31.983  34.352  14.957  1.00  0.00     0.051 A 
ATOM      6  C   UNL     1      31.812  33.254  15.772  1.00  0.00     0.010 A 
ENDROOT
BRANCH   1   7
ATOM      7  C   UNL     1      30.465  31.210  16.346  1.00  0.00     0.181 C 
BRANCH   7   8
ATOM      8  N   UNL     1      29.043  31.050  16.628  1.00  0.00    -0.248 N 
ATOM      9  C   UNL     1      25.725  29.487  16.437  1.00  0.00     0.070 C 
ATOM     10  C   UNL     1      26.961  30.291  16.667  1.00  0.00     0.080 A 
ATOM     11  C   UNL     1      28.228  30.087  16.166  1.00  0.00     0.134 A 
ATOM     12  N   UNL     1      27.057  31.390  17.428  1.00  0.00    -0.136 NA
ATOM     13  N   UNL     1      28.294  31.821  17.390  1.00  0.00    -0.067 NA
ENDBRANCH   7   8
ENDBRANCH   1   7
BRANCH   3  14
ATOM     14  O   UNL     1      29.228  34.109  12.643  1.00  0.00    -0.493 OA
ATOM     15  C   UNL     1      27.977  34.695  12.950  1.00  0.00     0.278 C 
ENDBRANCH   3  14
BRANCH   4  16
ATOM     16  O   UNL     1      31.366  35.777  13.128  1.00  0.00    -0.493 OA
ATOM     17  C   UNL     1      32.620  36.175  12.653  1.00  0.00     0.278 C 
ENDBRANCH   4  16
TORSDOF 4
BEGIN_RES LYS A 135
REMARK  4 active torsions:
REMARK  status: ('A' for Active; 'I' for Inactive)
REMARK    1  A    between atoms: CA   and  CB  
REMARK    2  A    between atoms: CB   and  CG  
REMARK    3  A    between atoms: CG   and  CD  
REMARK    4  A    between atoms: CD   and  CE  
ROOT
ATOM      1  CA  LYS A 135      33.193  34.663   9.290  1.00 25.02     0.186 C 
ENDROOT
BRANCH   1   2
ATOM      2  CB  LYS A 135      32.060  35.360  10.034  1.00 26.63     0.034 C 
BRANCH   2   3
ATOM      3  CG  LYS A 135      30.700  34.785   9.735  1.00 29.45     0.005 C 
BRANCH   3   4
ATOM      4  CD  LYS A 135      30.530  34.556   8.241  1.00 32.00     0.041 C 
BRANCH   4   5
ATOM      5  CE  LYS A 135      29.126  34.924   7.802  1.00 34.25     0.338 C 
ATOM      6  NZ  LYS A 135      28.109  34.379   8.744  1.00 35.99     0.618 N 
ENDBRANCH   4   5
ENDBRANCH   3   4
ENDBRANCH   2   3
ENDBRANCH   1   2
END_RES LYS A 135
BEGIN_RES TYR A 136
REMARK  2 active torsions:
REMARK  status: ('A' for Active; 'I' for Inactive)
REMARK    5  A    between atoms: CA   and  CB  
REMARK    6  A    between atoms: CB   and  CG  
ROOT
ATOM      7  CA  TYR A 136      36.583  36.399   8.994  1.00 26.14     0.191 C 
ENDROOT
BRANCH   7   8
ATOM      8  CB  TYR A 136      37.367  36.835  10.240  1.00 28.16     0.060 C 
BRANCH   8   9
ATOM      9  CG  TYR A 136      37.213  38.306  10.537  1.00 31.88    -0.020 A 
ATOM     10  CD2 TYR A 136      37.815  38.885  11.657  1.00 32.67    -0.002 A 
ATOM     11  CE2 TYR A 136      37.665  40.253  11.924  1.00 33.89     0.027 A 
ATOM     12  CZ  TYR A 136      36.904  41.048  11.064  1.00 34.34     0.131 A 
ATOM     13  OH  TYR A 136      36.748  42.406  11.305  1.00 35.14    -0.190 OA
ATOM     14  CE1 TYR A 136      36.298  40.490   9.948  1.00 35.01     0.027 A 
ATOM     15  CD1 TYR A 136      36.450  39.126   9.695  1.00 33.57    -0.002 A 
ENDBRANCH   8   9
ENDBRANCH   7   8
END_RES TYR A 136
BEGIN_RES ASN A 133
REMARK  2 active torsions:
REMARK  status: ('A' for Active; 'I' for Inactive)
REMARK    7  A    between atoms: CA   and  CB  
REMARK    8  A    between atoms: CB   and  CG  
ROOT
ATOM     16  CA  ASN A 133      31.225  30.257  11.749  1.00 18.15     0.196 C 
ENDROOT
BRANCH  16  17
ATOM     17  CB  ASN A 133      30.092  31.240  11.460  1.00 18.27     0.126 C 
BRANCH  17  18
ATOM     18  CG  ASN A 133      28.756  30.579  11.322  1.00 18.94     0.276 C 
ATOM     19  OD1 ASN A 133      28.597  29.609  10.577  1.00 18.09    -0.269 OA
ATOM     20  ND2 ASN A 133      27.768  31.103  12.046  1.00 18.93    -0.107 N 
ENDBRANCH  17  18
ENDBRANCH  16  17
END_RES ASN A 133
