REMARK VINA RESULT:    -3.602      0.000      0.000
REMARK INTER + INTRA:          -8.219
REMARK INTER:                  -4.601
REMARK INTRA:                  -3.619
REMARK UNBOUND:                -3.459
REMARK SMILES CCOC(CCn1cc(C)nn1)OCC
REMARK SMILES IDX 5 1 6 2 7 3 10 4 9 5 8 6 11 7 12 8 4 9 3 10 2 11 1 12 13 13
REMARK SMILES IDX 14 14 15 15
REMARK H PARENT
REMARK Flexibility Score: inf
ROOT
ATOM      1  C   UNL     1      36.436  36.277  14.676  1.00  0.00     0.086 C 
ENDROOT
BRANCH   1   2
ATOM      2  C   UNL     1      37.869  36.511  14.811  1.00  0.00     0.151 C 
BRANCH   2   3
ATOM      3  N   UNL     1      38.579  35.529  15.584  1.00  0.00    -0.252 N 
ATOM      4  C   UNL     1      38.706  32.921  18.150  1.00  0.00     0.070 C 
ATOM      5  C   UNL     1      38.920  33.945  17.075  1.00  0.00     0.080 A 
ATOM      6  C   UNL     1      37.960  34.748  16.522  1.00  0.00     0.134 A 
ATOM      7  N   UNL     1      40.073  34.242  16.480  1.00  0.00    -0.136 NA
ATOM      8  N   UNL     1      39.817  35.190  15.603  1.00  0.00    -0.067 NA
ENDBRANCH   2   3
ENDBRANCH   1   2
BRANCH   1   9
ATOM      9  C   UNL     1      36.043  35.833  13.078  1.00  0.00     0.251 C 
BRANCH   9  10
ATOM     10  O   UNL     1      36.003  34.254  13.309  1.00  0.00    -0.353 OA
BRANCH  10  11
ATOM     11  C   UNL     1      36.618  33.599  12.359  1.00  0.00     0.160 C 
ATOM     12  C   UNL     1      37.904  33.011  13.018  1.00  0.00     0.035 C 
ENDBRANCH  10  11
ENDBRANCH   9  10
BRANCH   9  13
ATOM     13  O   UNL     1      34.815  35.998  13.254  1.00  0.00    -0.353 OA
BRANCH  13  14
ATOM     14  C   UNL     1      33.739  36.207  12.541  1.00  0.00     0.160 C 
ATOM     15  C   UNL     1      33.815  37.669  12.017  1.00  0.00     0.035 C 
ENDBRANCH  13  14
ENDBRANCH   9  13
ENDBRANCH   1   9
TORSDOF 7
BEGIN_RES LYS A 135
REMARK  4 active torsions:
REMARK  status: ('A' for Active; 'I' for Inactive)
REMARK    1  A    between atoms: CA   and  CB  
REMARK    2  A    between atoms: CB   and  CG  
REMARK    3  A    between atoms: CG   and  CD  
REMARK    4  A    between atoms: CD   and  CE  
ROOT
ATOM      1  CA  LYS A 135      33.193  34.663   9.290  1.00 25.02     0.186 C 
ENDROOT
BRANCH   1   2
ATOM      2  CB  LYS A 135      32.060  35.360  10.034  1.00 26.63     0.034 C 
BRANCH   2   3
ATOM      3  CG  LYS A 135      30.830  35.578   9.191  1.00 29.45     0.005 C 
BRANCH   3   4
ATOM      4  CD  LYS A 135      30.220  34.247   8.778  1.00 32.00     0.041 C 
BRANCH   4   5
ATOM      5  CE  LYS A 135      28.732  34.399   8.527  1.00 34.25     0.338 C 
ATOM      6  NZ  LYS A 135      27.937  33.731   9.594  1.00 35.99     0.618 N 
ENDBRANCH   4   5
ENDBRANCH   3   4
ENDBRANCH   2   3
ENDBRANCH   1   2
END_RES LYS A 135
BEGIN_RES TYR A 136
REMARK  2 active torsions:
REMARK  status: ('A' for Active; 'I' for Inactive)
REMARK    5  A    between atoms: CA   and  CB  
REMARK    6  A    between atoms: CB   and  CG  
ROOT
ATOM      7  CA  TYR A 136      36.583  36.399   8.994  1.00 26.14     0.191 C 
ENDROOT
BRANCH   7   8
ATOM      8  CB  TYR A 136      37.367  36.835  10.240  1.00 28.16     0.060 C 
BRANCH   8   9
ATOM      9  CG  TYR A 136      37.184  38.299  10.558  1.00 31.88    -0.020 A 
ATOM     10  CD2 TYR A 136      37.698  38.853  11.732  1.00 32.67    -0.002 A 
ATOM     11  CE2 TYR A 136      37.520  40.214  12.019  1.00 33.89     0.027 A 
ATOM     12  CZ  TYR A 136      36.822  41.026  11.123  1.00 34.34     0.131 A 
ATOM     13  OH  TYR A 136      36.641  42.378  11.383  1.00 35.14    -0.190 OA
ATOM     14  CE1 TYR A 136      36.304  40.492   9.952  1.00 35.01     0.027 A 
ATOM     15  CD1 TYR A 136      36.481  39.134   9.680  1.00 33.57    -0.002 A 
ENDBRANCH   8   9
ENDBRANCH   7   8
END_RES TYR A 136
BEGIN_RES ASN A 133
REMARK  2 active torsions:
REMARK  status: ('A' for Active; 'I' for Inactive)
REMARK    7  A    between atoms: CA   and  CB  
REMARK    8  A    between atoms: CB   and  CG  
ROOT
ATOM     16  CA  ASN A 133      31.225  30.257  11.749  1.00 18.15     0.196 C 
ENDROOT
BRANCH  16  17
ATOM     17  CB  ASN A 133      30.092  31.240  11.460  1.00 18.27     0.126 C 
BRANCH  17  18
ATOM     18  CG  ASN A 133      28.751  30.583  11.357  1.00 18.94     0.276 C 
ATOM     19  OD1 ASN A 133      28.572  29.609  10.623  1.00 18.09    -0.269 OA
ATOM     20  ND2 ASN A 133      27.781  31.117  12.099  1.00 18.93    -0.107 N 
ENDBRANCH  17  18
ENDBRANCH  16  17
END_RES ASN A 133
