REMARK VINA RESULT:    -3.687      6.827      9.765
REMARK INTER + INTRA:          -7.351
REMARK INTER:                  -4.118
REMARK INTRA:                  -3.232
REMARK UNBOUND:                -3.232
REMARK SMILES Cc1cn(Cc2cccc(Br)c2)nn1
REMARK SMILES IDX 5 1 4 2 1 3 2 4 3 5 14 6 13 7 6 8 7 9 12 10 8 11 10 12 9 13
REMARK SMILES IDX 11 14
REMARK H PARENT
REMARK Flexibility Score: inf
ROOT
ATOM      1  C   UNL     1      37.229  37.457   3.377  1.00  0.00     0.181 C 
ENDROOT
BRANCH   1   2
ATOM      2  N   UNL     1      37.918  38.137   2.311  1.00  0.00    -0.248 N 
ATOM      3  C   UNL     1      39.057  38.869  -1.079  1.00  0.00     0.070 C 
ATOM      4  C   UNL     1      38.716  38.747   0.345  1.00  0.00     0.080 A 
ATOM      5  C   UNL     1      37.925  37.832   1.001  1.00  0.00     0.134 A 
ATOM      6  N   UNL     1      39.163  39.586   1.311  1.00  0.00    -0.136 NA
ATOM      7  N   UNL     1      38.675  39.206   2.486  1.00  0.00    -0.067 NA
ENDBRANCH   1   2
BRANCH   1   8
ATOM      8  C   UNL     1      36.161  38.269   3.978  1.00  0.00    -0.025 A 
ATOM      9  C   UNL     1      35.978  38.207   5.350  1.00  0.00     0.006 A 
ATOM     10  C   UNL     1      35.315  39.098   3.273  1.00  0.00     0.021 A 
ATOM     11  C   UNL     1      35.001  38.936   5.995  1.00  0.00     0.002 A 
ATOM     12  C   UNL     1      34.331  39.833   3.910  1.00  0.00     0.018 A 
ATOM     13  C   UNL     1      34.172  39.752   5.280  1.00  0.00     0.016 A 
ATOM     14  Br  UNL     1      33.212  40.951   2.854  1.00  0.00    -0.051 Br
ENDBRANCH   1   8
TORSDOF 2
BEGIN_RES LYS A 135
REMARK  4 active torsions:
REMARK  status: ('A' for Active; 'I' for Inactive)
REMARK    1  A    between atoms: CA   and  CB  
REMARK    2  A    between atoms: CB   and  CG  
REMARK    3  A    between atoms: CG   and  CD  
REMARK    4  A    between atoms: CD   and  CE  
ROOT
ATOM      1  CA  LYS A 135      33.193  34.663   9.290  1.00 25.02     0.186 C 
ENDROOT
BRANCH   1   2
ATOM      2  CB  LYS A 135      32.060  35.360  10.034  1.00 26.63     0.034 C 
BRANCH   2   3
ATOM      3  CG  LYS A 135      30.705  34.757   9.769  1.00 29.45     0.005 C 
BRANCH   3   4
ATOM      4  CD  LYS A 135      30.479  34.577   8.276  1.00 32.00     0.041 C 
BRANCH   4   5
ATOM      5  CE  LYS A 135      29.039  34.884   7.914  1.00 34.25     0.338 C 
ATOM      6  NZ  LYS A 135      28.953  35.587   6.604  1.00 35.99     0.618 N 
ENDBRANCH   4   5
ENDBRANCH   3   4
ENDBRANCH   2   3
ENDBRANCH   1   2
END_RES LYS A 135
BEGIN_RES TYR A 136
REMARK  2 active torsions:
REMARK  status: ('A' for Active; 'I' for Inactive)
REMARK    5  A    between atoms: CA   and  CB  
REMARK    6  A    between atoms: CB   and  CG  
ROOT
ATOM      7  CA  TYR A 136      36.583  36.399   8.994  1.00 26.14     0.191 C 
ENDROOT
BRANCH   7   8
ATOM      8  CB  TYR A 136      37.367  36.835  10.240  1.00 28.16     0.060 C 
BRANCH   8   9
ATOM      9  CG  TYR A 136      37.301  38.324  10.475  1.00 31.88    -0.020 A 
ATOM     10  CD2 TYR A 136      37.772  38.890  11.662  1.00 32.67    -0.002 A 
ATOM     11  CE2 TYR A 136      37.704  40.274  11.872  1.00 33.89     0.027 A 
ATOM     12  CZ  TYR A 136      37.161  41.100  10.884  1.00 34.34     0.131 A 
ATOM     13  OH  TYR A 136      37.091  42.474  11.067  1.00 35.14    -0.190 OA
ATOM     14  CE1 TYR A 136      36.688  40.554   9.699  1.00 35.01     0.027 A 
ATOM     15  CD1 TYR A 136      36.754  39.174   9.505  1.00 33.57    -0.002 A 
ENDBRANCH   8   9
ENDBRANCH   7   8
END_RES TYR A 136
BEGIN_RES ASN A 133
REMARK  2 active torsions:
REMARK  status: ('A' for Active; 'I' for Inactive)
REMARK    7  A    between atoms: CA   and  CB  
REMARK    8  A    between atoms: CB   and  CG  
ROOT
ATOM     16  CA  ASN A 133      31.225  30.257  11.749  1.00 18.15     0.196 C 
ENDROOT
BRANCH  16  17
ATOM     17  CB  ASN A 133      30.092  31.240  11.460  1.00 18.27     0.126 C 
BRANCH  17  18
ATOM     18  CG  ASN A 133      28.751  30.582  11.352  1.00 18.94     0.276 C 
ATOM     19  OD1 ASN A 133      28.577  29.603  10.624  1.00 18.09    -0.269 OA
ATOM     20  ND2 ASN A 133      27.777  31.121  12.084  1.00 18.93    -0.107 N 
ENDBRANCH  17  18
ENDBRANCH  16  17
END_RES ASN A 133
