REMARK VINA RESULT:    -5.454      2.183      3.520
REMARK INTER + INTRA:          -7.414
REMARK INTER:                  -4.315
REMARK INTRA:                  -3.099
REMARK UNBOUND:                -1.642
REMARK SMILES Cc1cn(C2CCCCC2)nn1
REMARK SMILES IDX 5 1 6 2 7 3 8 4 9 5 10 6 4 7 1 8 2 9 3 10 12 11 11 12
REMARK H PARENT
REMARK Flexibility Score: inf
ROOT
ATOM      1  C   UNL     1      34.396  35.416  13.750  1.00  0.00     0.109 C 
ATOM      2  C   UNL     1      34.223  36.285  12.548  1.00  0.00     0.027 C 
ATOM      3  C   UNL     1      33.122  37.309  12.706  1.00  0.00     0.002 C 
ATOM      4  C   UNL     1      33.468  38.268  13.820  1.00  0.00     0.000 C 
ATOM      5  C   UNL     1      34.438  37.679  14.792  1.00  0.00     0.002 C 
ATOM      6  C   UNL     1      34.219  36.197  15.027  1.00  0.00     0.027 C 
ENDROOT
BRANCH   1   7
ATOM      7  N   UNL     1      35.692  34.762  13.697  1.00  0.00    -0.249 N 
ATOM      8  C   UNL     1      38.355  32.613  12.451  1.00  0.00     0.070 C 
ATOM      9  C   UNL     1      37.470  33.560  13.192  1.00  0.00     0.080 A 
ATOM     10  C   UNL     1      36.191  33.903  12.823  1.00  0.00     0.134 A 
ATOM     11  N   UNL     1      37.717  34.249  14.318  1.00  0.00    -0.136 NA
ATOM     12  N   UNL     1      36.649  34.964  14.612  1.00  0.00    -0.067 NA
ENDBRANCH   1   7
TORSDOF 1
BEGIN_RES LYS A 135
REMARK  4 active torsions:
REMARK  status: ('A' for Active; 'I' for Inactive)
REMARK    1  A    between atoms: CA   and  CB  
REMARK    2  A    between atoms: CB   and  CG  
REMARK    3  A    between atoms: CG   and  CD  
REMARK    4  A    between atoms: CD   and  CE  
ROOT
ATOM      1  CA  LYS A 135      33.193  34.663   9.290  1.00 25.02     0.186 C 
ENDROOT
BRANCH   1   2
ATOM      2  CB  LYS A 135      32.060  35.360  10.034  1.00 26.63     0.034 C 
BRANCH   2   3
ATOM      3  CG  LYS A 135      30.709  34.735   9.797  1.00 29.45     0.005 C 
BRANCH   3   4
ATOM      4  CD  LYS A 135      30.466  34.529   8.310  1.00 32.00     0.041 C 
BRANCH   4   5
ATOM      5  CE  LYS A 135      29.024  34.838   7.959  1.00 34.25     0.338 C 
ATOM      6  NZ  LYS A 135      28.928  35.528   6.643  1.00 35.99     0.618 N 
ENDBRANCH   4   5
ENDBRANCH   3   4
ENDBRANCH   2   3
ENDBRANCH   1   2
END_RES LYS A 135
BEGIN_RES TYR A 136
REMARK  2 active torsions:
REMARK  status: ('A' for Active; 'I' for Inactive)
REMARK    5  A    between atoms: CA   and  CB  
REMARK    6  A    between atoms: CB   and  CG  
ROOT
ATOM      7  CA  TYR A 136      36.583  36.399   8.994  1.00 26.14     0.191 C 
ENDROOT
BRANCH   7   8
ATOM      8  CB  TYR A 136      37.367  36.835  10.240  1.00 28.16     0.060 C 
BRANCH   8   9
ATOM      9  CG  TYR A 136      36.814  38.093  10.862  1.00 31.88    -0.020 A 
ATOM     10  CD2 TYR A 136      35.863  38.871  10.198  1.00 32.67    -0.002 A 
ATOM     11  CE2 TYR A 136      35.357  40.039  10.784  1.00 33.89     0.027 A 
ATOM     12  CZ  TYR A 136      35.807  40.433  12.047  1.00 34.34     0.131 A 
ATOM     13  OH  TYR A 136      35.315  41.583  12.650  1.00 35.14    -0.190 OA
ATOM     14  CE1 TYR A 136      36.753  39.674  12.720  1.00 35.01     0.027 A 
ATOM     15  CD1 TYR A 136      37.254  38.516  12.123  1.00 33.57    -0.002 A 
ENDBRANCH   8   9
ENDBRANCH   7   8
END_RES TYR A 136
BEGIN_RES ASN A 133
REMARK  2 active torsions:
REMARK  status: ('A' for Active; 'I' for Inactive)
REMARK    7  A    between atoms: CA   and  CB  
REMARK    8  A    between atoms: CB   and  CG  
ROOT
ATOM     16  CA  ASN A 133      31.225  30.257  11.749  1.00 18.15     0.196 C 
ENDROOT
BRANCH  16  17
ATOM     17  CB  ASN A 133      30.092  31.240  11.460  1.00 18.27     0.126 C 
BRANCH  17  18
ATOM     18  CG  ASN A 133      28.752  30.582  11.350  1.00 18.94     0.276 C 
ATOM     19  OD1 ASN A 133      28.578  29.605  10.618  1.00 18.09    -0.269 OA
ATOM     20  ND2 ASN A 133      27.777  31.118  12.083  1.00 18.93    -0.107 N 
ENDBRANCH  17  18
ENDBRANCH  16  17
END_RES ASN A 133
