REMARK VINA RESULT:    -4.767      6.315     12.661
REMARK INTER + INTRA:          -8.163
REMARK INTER:                  -5.114
REMARK INTRA:                  -3.049
REMARK UNBOUND:                -2.839
REMARK SMILES Cc1cn(-c2ncn3c2c(=O)n(C(C)C)c2ccccc23)nn1
REMARK SMILES IDX 5 1 6 2 7 3 8 4 21 5 20 6 19 7 18 8 17 9 16 10 12 11 10 12
REMARK SMILES IDX 11 13 9 14 4 15 1 16 2 17 3 18 23 19 22 20 13 21 14 22 15 23
REMARK H PARENT
REMARK Flexibility Score: inf
ROOT
ATOM      1  C   UNL     1      23.479  28.751  15.816  1.00  0.00     0.186 A 
ATOM      2  N   UNL     1      22.770  27.846  16.506  1.00  0.00    -0.216 NA
ATOM      3  C   UNL     1      23.441  27.440  17.596  1.00  0.00     0.207 A 
ATOM      4  N   UNL     1      24.621  28.111  17.600  1.00  0.00    -0.291 N 
ATOM      5  C   UNL     1      25.679  28.101  18.449  1.00  0.00     0.071 A 
ATOM      6  C   UNL     1      25.567  27.259  19.532  1.00  0.00     0.029 A 
ATOM      7  C   UNL     1      26.625  27.234  20.411  1.00  0.00     0.002 A 
ATOM      8  C   UNL     1      27.744  28.007  20.227  1.00  0.00     0.002 A 
ATOM      9  C   UNL     1      27.836  28.838  19.144  1.00  0.00     0.028 A 
ATOM     10  C   UNL     1      26.793  28.882  18.248  1.00  0.00     0.068 A 
ATOM     11  N   UNL     1      26.805  29.691  17.139  1.00  0.00    -0.302 N 
ATOM     12  C   UNL     1      25.764  29.712  16.290  1.00  0.00     0.279 A 
ATOM     13  O   UNL     1      25.705  30.429  15.256  1.00  0.00    -0.267 OA
ATOM     14  C   UNL     1      24.661  28.916  16.519  1.00  0.00     0.158 A 
ENDROOT
BRANCH   1  15
ATOM     15  N   UNL     1      23.101  29.419  14.595  1.00  0.00    -0.200 N 
ATOM     16  C   UNL     1      21.530  32.019  12.604  1.00  0.00     0.070 C 
ATOM     17  C   UNL     1      22.256  30.839  13.157  1.00  0.00     0.080 A 
ATOM     18  C   UNL     1      22.387  30.554  14.490  1.00  0.00     0.142 A 
ATOM     19  N   UNL     1      22.885  29.881  12.478  1.00  0.00    -0.135 NA
ATOM     20  N   UNL     1      23.389  29.033  13.365  1.00  0.00    -0.061 NA
ENDBRANCH   1  15
BRANCH  11  21
ATOM     21  C   UNL     1      27.962  30.490  16.932  1.00  0.00     0.085 C 
ATOM     22  C   UNL     1      28.635  30.151  15.624  1.00  0.00     0.031 C 
ATOM     23  C   UNL     1      27.680  31.978  16.919  1.00  0.00     0.031 C 
ENDBRANCH  11  21
TORSDOF 2
BEGIN_RES LYS A 135
REMARK  4 active torsions:
REMARK  status: ('A' for Active; 'I' for Inactive)
REMARK    1  A    between atoms: CA   and  CB  
REMARK    2  A    between atoms: CB   and  CG  
REMARK    3  A    between atoms: CG   and  CD  
REMARK    4  A    between atoms: CD   and  CE  
ROOT
ATOM      1  CA  LYS A 135      33.193  34.663   9.290  1.00 25.02     0.186 C 
ENDROOT
BRANCH   1   2
ATOM      2  CB  LYS A 135      32.060  35.360  10.034  1.00 26.63     0.034 C 
BRANCH   2   3
ATOM      3  CG  LYS A 135      30.801  35.502   9.218  1.00 29.45     0.005 C 
BRANCH   3   4
ATOM      4  CD  LYS A 135      30.113  34.156   9.053  1.00 32.00     0.041 C 
BRANCH   4   5
ATOM      5  CE  LYS A 135      28.651  34.345   8.696  1.00 34.25     0.338 C 
ATOM      6  NZ  LYS A 135      27.768  33.629   9.658  1.00 35.99     0.618 N 
ENDBRANCH   4   5
ENDBRANCH   3   4
ENDBRANCH   2   3
ENDBRANCH   1   2
END_RES LYS A 135
BEGIN_RES TYR A 136
REMARK  2 active torsions:
REMARK  status: ('A' for Active; 'I' for Inactive)
REMARK    5  A    between atoms: CA   and  CB  
REMARK    6  A    between atoms: CB   and  CG  
ROOT
ATOM      7  CA  TYR A 136      36.583  36.399   8.994  1.00 26.14     0.191 C 
ENDROOT
BRANCH   7   8
ATOM      8  CB  TYR A 136      37.367  36.835  10.240  1.00 28.16     0.060 C 
BRANCH   8   9
ATOM      9  CG  TYR A 136      37.221  38.308  10.531  1.00 31.88    -0.020 A 
ATOM     10  CD2 TYR A 136      36.410  39.125   9.740  1.00 32.67    -0.002 A 
ATOM     11  CE2 TYR A 136      36.282  40.493  10.019  1.00 33.89     0.027 A 
ATOM     12  CZ  TYR A 136      36.972  41.048  11.098  1.00 34.34     0.131 A 
ATOM     13  OH  TYR A 136      36.855  42.399  11.397  1.00 35.14    -0.190 OA
ATOM     14  CE1 TYR A 136      37.784  40.252  11.894  1.00 35.01     0.027 A 
ATOM     15  CD1 TYR A 136      37.908  38.893  11.603  1.00 33.57    -0.002 A 
ENDBRANCH   8   9
ENDBRANCH   7   8
END_RES TYR A 136
BEGIN_RES ASN A 133
REMARK  2 active torsions:
REMARK  status: ('A' for Active; 'I' for Inactive)
REMARK    7  A    between atoms: CA   and  CB  
REMARK    8  A    between atoms: CB   and  CG  
ROOT
ATOM     16  CA  ASN A 133      31.225  30.257  11.749  1.00 18.15     0.196 C 
ENDROOT
BRANCH  16  17
ATOM     17  CB  ASN A 133      30.092  31.240  11.460  1.00 18.27     0.126 C 
BRANCH  17  18
ATOM     18  CG  ASN A 133      28.746  30.588  11.395  1.00 18.94     0.276 C 
ATOM     19  OD1 ASN A 133      28.540  29.619  10.661  1.00 18.09    -0.269 OA
ATOM     20  ND2 ASN A 133      27.802  31.121  12.170  1.00 18.93    -0.107 N 
ENDBRANCH  17  18
ENDBRANCH  16  17
END_RES ASN A 133
