REMARK VINA RESULT:    -3.303      4.042      4.901
REMARK INTER + INTRA:          -7.026
REMARK INTER:                  -3.954
REMARK INTRA:                  -3.072
REMARK UNBOUND:                -3.047
REMARK SMILES Cc1cn(CCC(=O)O)nn1
REMARK SMILES IDX 6 1 5 2 4 3 1 4 2 5 3 6 11 7 10 8 7 9 8 10 9 11
REMARK H PARENT 9 12
REMARK Flexibility Score: inf
ROOT
ATOM      1  C   UNL     1      22.966  35.968  -1.245  1.00  0.00     0.146 C 
ENDROOT
BRANCH   1   2
ATOM      2  C   UNL     1      23.091  37.441  -1.649  1.00  0.00     0.158 C 
BRANCH   2   3
ATOM      3  N   UNL     1      24.476  37.833  -1.676  1.00  0.00    -0.252 N 
ATOM      4  C   UNL     1      28.030  37.537  -2.492  1.00  0.00     0.070 C 
ATOM      5  C   UNL     1      26.659  37.897  -2.035  1.00  0.00     0.080 A 
ATOM      6  C   UNL     1      25.492  37.142  -2.239  1.00  0.00     0.134 A 
ATOM      7  N   UNL     1      26.293  38.981  -1.375  1.00  0.00    -0.136 NA
ATOM      8  N   UNL     1      24.977  38.922  -1.168  1.00  0.00    -0.067 NA
ENDBRANCH   2   3
ENDBRANCH   1   2
BRANCH   1   9
ATOM      9  C   UNL     1      22.606  35.959   0.181  1.00  0.00     0.305 C 
ATOM     10  O   UNL     1      22.959  34.993   0.883  1.00  0.00    -0.252 OA
BRANCH   9  11
ATOM     11  O   UNL     1      21.887  36.998   0.739  1.00  0.00    -0.481 OA
ATOM     12  H   UNL     1      21.814  37.918   0.321  1.00  0.00     0.296 HD
ENDBRANCH   9  11
ENDBRANCH   1   9
TORSDOF 4
BEGIN_RES LYS A 135
REMARK  4 active torsions:
REMARK  status: ('A' for Active; 'I' for Inactive)
REMARK    1  A    between atoms: CA   and  CB  
REMARK    2  A    between atoms: CB   and  CG  
REMARK    3  A    between atoms: CG   and  CD  
REMARK    4  A    between atoms: CD   and  CE  
ROOT
ATOM      1  CA  LYS A 135      33.193  34.663   9.290  1.00 25.02     0.186 C 
ENDROOT
BRANCH   1   2
ATOM      2  CB  LYS A 135      32.060  35.360  10.034  1.00 26.63     0.034 C 
BRANCH   2   3
ATOM      3  CG  LYS A 135      30.800  35.499   9.219  1.00 29.45     0.005 C 
BRANCH   3   4
ATOM      4  CD  LYS A 135      30.160  34.140   8.984  1.00 32.00     0.041 C 
BRANCH   4   5
ATOM      5  CE  LYS A 135      28.696  34.296   8.618  1.00 34.25     0.338 C 
ATOM      6  NZ  LYS A 135      28.471  35.537   7.827  1.00 35.99     0.618 N 
ENDBRANCH   4   5
ENDBRANCH   3   4
ENDBRANCH   2   3
ENDBRANCH   1   2
END_RES LYS A 135
BEGIN_RES TYR A 136
REMARK  2 active torsions:
REMARK  status: ('A' for Active; 'I' for Inactive)
REMARK    5  A    between atoms: CA   and  CB  
REMARK    6  A    between atoms: CB   and  CG  
ROOT
ATOM      7  CA  TYR A 136      36.583  36.399   8.994  1.00 26.14     0.191 C 
ENDROOT
BRANCH   7   8
ATOM      8  CB  TYR A 136      37.367  36.835  10.240  1.00 28.16     0.060 C 
BRANCH   8   9
ATOM      9  CG  TYR A 136      37.201  38.303  10.545  1.00 31.88    -0.020 A 
ATOM     10  CD2 TYR A 136      36.533  39.155   9.663  1.00 32.67    -0.002 A 
ATOM     11  CE2 TYR A 136      36.386  40.517   9.955  1.00 33.89     0.027 A 
ATOM     12  CZ  TYR A 136      36.913  41.033  11.141  1.00 34.34     0.131 A 
ATOM     13  OH  TYR A 136      36.774  42.378  11.454  1.00 35.14    -0.190 OA
ATOM     14  CE1 TYR A 136      37.582  40.203  12.029  1.00 35.01     0.027 A 
ATOM     15  CD1 TYR A 136      37.727  38.848  11.724  1.00 33.57    -0.002 A 
ENDBRANCH   8   9
ENDBRANCH   7   8
END_RES TYR A 136
BEGIN_RES ASN A 133
REMARK  2 active torsions:
REMARK  status: ('A' for Active; 'I' for Inactive)
REMARK    7  A    between atoms: CA   and  CB  
REMARK    8  A    between atoms: CB   and  CG  
ROOT
ATOM     16  CA  ASN A 133      31.225  30.257  11.749  1.00 18.15     0.196 C 
ENDROOT
BRANCH  16  17
ATOM     17  CB  ASN A 133      30.092  31.240  11.460  1.00 18.27     0.126 C 
BRANCH  17  18
ATOM     18  CG  ASN A 133      28.747  30.586  11.383  1.00 18.94     0.276 C 
ATOM     19  OD1 ASN A 133      28.556  29.601  10.668  1.00 18.09    -0.269 OA
ATOM     20  ND2 ASN A 133      27.788  31.137  12.126  1.00 18.93    -0.107 N 
ENDBRANCH  17  18
ENDBRANCH  16  17
END_RES ASN A 133
