REMARK VINA RESULT:    -4.893      3.618      5.287
REMARK INTER + INTRA:          -8.345
REMARK INTER:                  -5.220
REMARK INTRA:                  -3.124
REMARK UNBOUND:                -3.166
REMARK SMILES Cc1cn(-c2cnc3ccccc3c2)nn1
REMARK SMILES IDX 5 1 6 2 7 3 8 4 9 5 10 6 11 7 12 8 13 9 14 10 4 11 1 12 2 13
REMARK SMILES IDX 3 14 16 15 15 16
REMARK H PARENT
REMARK Flexibility Score: inf
ROOT
ATOM      1  C   UNL     1      38.490  34.369  13.331  1.00  0.00     0.085 A 
ATOM      2  C   UNL     1      37.680  33.789  12.396  1.00  0.00     0.140 A 
ATOM      3  N   UNL     1      36.341  33.916  12.484  1.00  0.00    -0.254 NA
ATOM      4  C   UNL     1      35.752  34.609  13.482  1.00  0.00     0.070 A 
ATOM      5  C   UNL     1      34.383  34.744  13.579  1.00  0.00     0.029 A 
ATOM      6  C   UNL     1      33.820  35.463  14.619  1.00  0.00     0.002 A 
ATOM      7  C   UNL     1      34.630  36.063  15.585  1.00  0.00     0.001 A 
ATOM      8  C   UNL     1      35.980  35.929  15.487  1.00  0.00     0.010 A 
ATOM      9  C   UNL     1      36.531  35.212  14.450  1.00  0.00     0.002 A 
ATOM     10  C   UNL     1      37.894  35.078  14.353  1.00  0.00     0.040 A 
ENDROOT
BRANCH   1  11
ATOM     11  N   UNL     1      39.927  34.260  13.278  1.00  0.00    -0.219 N 
ATOM     12  C   UNL     1      43.342  35.062  14.341  1.00  0.00     0.070 C 
ATOM     13  C   UNL     1      42.082  34.566  13.724  1.00  0.00     0.080 A 
ATOM     14  C   UNL     1      40.785  34.929  14.070  1.00  0.00     0.140 A 
ATOM     15  N   UNL     1      41.929  33.679  12.722  1.00  0.00    -0.135 NA
ATOM     16  N   UNL     1      40.643  33.505  12.465  1.00  0.00    -0.062 NA
ENDBRANCH   1  11
TORSDOF 1
BEGIN_RES LYS A 135
REMARK  4 active torsions:
REMARK  status: ('A' for Active; 'I' for Inactive)
REMARK    1  A    between atoms: CA   and  CB  
REMARK    2  A    between atoms: CB   and  CG  
REMARK    3  A    between atoms: CG   and  CD  
REMARK    4  A    between atoms: CD   and  CE  
ROOT
ATOM      1  CA  LYS A 135      33.193  34.663   9.290  1.00 25.02     0.186 C 
ENDROOT
BRANCH   1   2
ATOM      2  CB  LYS A 135      32.060  35.360  10.034  1.00 26.63     0.034 C 
BRANCH   2   3
ATOM      3  CG  LYS A 135      30.733  34.657   9.907  1.00 29.45     0.005 C 
BRANCH   3   4
ATOM      4  CD  LYS A 135      30.329  34.533   8.446  1.00 32.00     0.041 C 
BRANCH   4   5
ATOM      5  CE  LYS A 135      28.818  34.529   8.311  1.00 34.25     0.338 C 
ATOM      6  NZ  LYS A 135      28.179  33.818   9.453  1.00 35.99     0.618 N 
ENDBRANCH   4   5
ENDBRANCH   3   4
ENDBRANCH   2   3
ENDBRANCH   1   2
END_RES LYS A 135
BEGIN_RES TYR A 136
REMARK  2 active torsions:
REMARK  status: ('A' for Active; 'I' for Inactive)
REMARK    5  A    between atoms: CA   and  CB  
REMARK    6  A    between atoms: CB   and  CG  
ROOT
ATOM      7  CA  TYR A 136      36.583  36.399   8.994  1.00 26.14     0.191 C 
ENDROOT
BRANCH   7   8
ATOM      8  CB  TYR A 136      37.367  36.835  10.240  1.00 28.16     0.060 C 
BRANCH   8   9
ATOM      9  CG  TYR A 136      36.757  38.037  10.918  1.00 31.88    -0.020 A 
ATOM     10  CD2 TYR A 136      36.453  39.196  10.200  1.00 32.67    -0.002 A 
ATOM     11  CE2 TYR A 136      35.888  40.308  10.840  1.00 33.89     0.027 A 
ATOM     12  CZ  TYR A 136      35.625  40.259  12.211  1.00 34.34     0.131 A 
ATOM     13  OH  TYR A 136      35.060  41.346  12.864  1.00 35.14    -0.190 OA
ATOM     14  CE1 TYR A 136      35.922  39.117  12.940  1.00 35.01     0.027 A 
ATOM     15  CD1 TYR A 136      36.490  38.018  12.293  1.00 33.57    -0.002 A 
ENDBRANCH   8   9
ENDBRANCH   7   8
END_RES TYR A 136
BEGIN_RES ASN A 133
REMARK  2 active torsions:
REMARK  status: ('A' for Active; 'I' for Inactive)
REMARK    7  A    between atoms: CA   and  CB  
REMARK    8  A    between atoms: CB   and  CG  
ROOT
ATOM     16  CA  ASN A 133      31.225  30.257  11.749  1.00 18.15     0.196 C 
ENDROOT
BRANCH  16  17
ATOM     17  CB  ASN A 133      30.092  31.240  11.460  1.00 18.27     0.126 C 
BRANCH  17  18
ATOM     18  CG  ASN A 133      28.752  30.582  11.348  1.00 18.94     0.276 C 
ATOM     19  OD1 ASN A 133      28.582  29.598  10.626  1.00 18.09    -0.269 OA
ATOM     20  ND2 ASN A 133      27.773  31.126  12.069  1.00 18.93    -0.107 N 
ENDBRANCH  17  18
ENDBRANCH  16  17
END_RES ASN A 133
