REMARK VINA RESULT:    -3.012      1.705      2.148
REMARK INTER + INTRA:          -6.789
REMARK INTER:                  -3.536
REMARK INTRA:                  -3.253
REMARK UNBOUND:                -3.337
REMARK SMILES Cc1cn(C(C)(C)C(=O)O)nn1
REMARK SMILES IDX 5 1 6 2 7 3 4 4 1 5 2 6 3 7 12 8 11 9 8 10 9 11 10 12
REMARK H PARENT 10 13
REMARK Flexibility Score: inf
ROOT
ATOM      1  C   UNL     1      37.542  34.948  13.202  1.00  0.00     0.155 C 
ATOM      2  C   UNL     1      38.161  34.954  11.820  1.00  0.00     0.049 C 
ATOM      3  C   UNL     1      36.183  34.292  13.073  1.00  0.00     0.049 C 
ENDROOT
BRANCH   1   4
ATOM      4  N   UNL     1      37.328  36.285  13.710  1.00  0.00    -0.235 N 
ATOM      5  C   UNL     1      35.375  39.181  14.666  1.00  0.00     0.070 C 
ATOM      6  C   UNL     1      36.397  38.148  14.355  1.00  0.00     0.080 A 
ATOM      7  C   UNL     1      36.146  36.898  13.838  1.00  0.00     0.135 A 
ATOM      8  N   UNL     1      37.724  38.262  14.528  1.00  0.00    -0.136 NA
ATOM      9  N   UNL     1      38.250  37.124  14.129  1.00  0.00    -0.066 NA
ENDBRANCH   1   4
BRANCH   1  10
ATOM     10  C   UNL     1      38.420  34.220  14.139  1.00  0.00     0.331 C 
ATOM     11  O   UNL     1      37.936  33.636  15.144  1.00  0.00    -0.250 OA
BRANCH  10  12
ATOM     12  O   UNL     1      39.784  34.204  13.873  1.00  0.00    -0.479 OA
ATOM     13  H   UNL     1      40.366  33.623  14.486  1.00  0.00     0.296 HD
ENDBRANCH  10  12
ENDBRANCH   1  10
TORSDOF 3
BEGIN_RES LYS A 135
REMARK  4 active torsions:
REMARK  status: ('A' for Active; 'I' for Inactive)
REMARK    1  A    between atoms: CA   and  CB  
REMARK    2  A    between atoms: CB   and  CG  
REMARK    3  A    between atoms: CG   and  CD  
REMARK    4  A    between atoms: CD   and  CE  
ROOT
ATOM      1  CA  LYS A 135      33.193  34.663   9.290  1.00 25.02     0.186 C 
ENDROOT
BRANCH   1   2
ATOM      2  CB  LYS A 135      32.060  35.360  10.034  1.00 26.63     0.034 C 
BRANCH   2   3
ATOM      3  CG  LYS A 135      30.854  35.637   9.173  1.00 29.45     0.005 C 
BRANCH   3   4
ATOM      4  CD  LYS A 135      30.255  34.338   8.656  1.00 32.00     0.041 C 
BRANCH   4   5
ATOM      5  CE  LYS A 135      28.799  34.536   8.280  1.00 34.25     0.338 C 
ATOM      6  NZ  LYS A 135      28.670  35.385   7.063  1.00 35.99     0.618 N 
ENDBRANCH   4   5
ENDBRANCH   3   4
ENDBRANCH   2   3
ENDBRANCH   1   2
END_RES LYS A 135
BEGIN_RES TYR A 136
REMARK  2 active torsions:
REMARK  status: ('A' for Active; 'I' for Inactive)
REMARK    5  A    between atoms: CA   and  CB  
REMARK    6  A    between atoms: CB   and  CG  
ROOT
ATOM      7  CA  TYR A 136      36.583  36.399   8.994  1.00 26.14     0.191 C 
ENDROOT
BRANCH   7   8
ATOM      8  CB  TYR A 136      37.367  36.835  10.240  1.00 28.16     0.060 C 
BRANCH   8   9
ATOM      9  CG  TYR A 136      37.073  38.259  10.641  1.00 31.88    -0.020 A 
ATOM     10  CD2 TYR A 136      35.772  38.765  10.611  1.00 32.67    -0.002 A 
ATOM     11  CE2 TYR A 136      35.509  40.091  10.984  1.00 33.89     0.027 A 
ATOM     12  CZ  TYR A 136      36.559  40.917  11.391  1.00 34.34     0.131 A 
ATOM     13  OH  TYR A 136      36.322  42.231  11.772  1.00 35.14    -0.190 OA
ATOM     14  CE1 TYR A 136      37.858  40.432  11.427  1.00 35.01     0.027 A 
ATOM     15  CD1 TYR A 136      38.108  39.112  11.047  1.00 33.57    -0.002 A 
ENDBRANCH   8   9
ENDBRANCH   7   8
END_RES TYR A 136
BEGIN_RES ASN A 133
REMARK  2 active torsions:
REMARK  status: ('A' for Active; 'I' for Inactive)
REMARK    7  A    between atoms: CA   and  CB  
REMARK    8  A    between atoms: CB   and  CG  
ROOT
ATOM     16  CA  ASN A 133      31.225  30.257  11.749  1.00 18.15     0.196 C 
ENDROOT
BRANCH  16  17
ATOM     17  CB  ASN A 133      30.092  31.240  11.460  1.00 18.27     0.126 C 
BRANCH  17  18
ATOM     18  CG  ASN A 133      28.752  30.582  11.349  1.00 18.94     0.276 C 
ATOM     19  OD1 ASN A 133      28.578  29.607  10.615  1.00 18.09    -0.269 OA
ATOM     20  ND2 ASN A 133      27.777  31.116  12.084  1.00 18.93    -0.107 N 
ENDBRANCH  17  18
ENDBRANCH  16  17
END_RES ASN A 133
