REMARK VINA RESULT:    -6.437      2.897      5.393
REMARK INTER + INTRA:          -8.956
REMARK INTER:                  -5.285
REMARK INTRA:                  -3.671
REMARK UNBOUND:                -1.391
REMARK SMILES Cc1cn(C(c2ccccc2)c2ccccc2)nn1
REMARK SMILES IDX 5 1 4 2 1 3 2 4 3 5 19 6 18 7 6 8 7 9 11 10 8 11 10 12 9 13
REMARK SMILES IDX 12 14 13 15 17 16 14 17 16 18 15 19
REMARK H PARENT
REMARK Flexibility Score: inf
ROOT
ATOM      1  C   UNL     1      37.677  35.752  15.448  1.00  0.00     0.169 C 
ENDROOT
BRANCH   1   2
ATOM      2  N   UNL     1      37.978  37.116  15.016  1.00  0.00    -0.240 N 
ATOM      3  C   UNL     1      37.890  40.769  15.065  1.00  0.00     0.070 C 
ATOM      4  C   UNL     1      38.071  39.330  14.848  1.00  0.00     0.080 A 
ATOM      5  C   UNL     1      37.551  38.263  15.573  1.00  0.00     0.135 A 
ATOM      6  N   UNL     1      38.800  38.764  13.869  1.00  0.00    -0.136 NA
ATOM      7  N   UNL     1      38.731  37.453  13.986  1.00  0.00    -0.066 NA
ENDBRANCH   1   2
BRANCH   1   8
ATOM      8  C   UNL     1      38.575  35.270  16.518  1.00  0.00    -0.019 A 
ATOM      9  C   UNL     1      39.866  35.696  16.673  1.00  0.00     0.006 A 
ATOM     10  C   UNL     1      38.116  34.335  17.443  1.00  0.00     0.006 A 
ATOM     11  C   UNL     1      40.656  35.198  17.716  1.00  0.00     0.000 A 
ATOM     12  C   UNL     1      38.889  33.846  18.466  1.00  0.00     0.000 A 
ATOM     13  C   UNL     1      40.178  34.277  18.613  1.00  0.00     0.000 A 
ENDBRANCH   1   8
BRANCH   1  14
ATOM     14  C   UNL     1      37.532  34.838  14.313  1.00  0.00    -0.019 A 
ATOM     15  C   UNL     1      38.529  34.011  13.845  1.00  0.00     0.006 A 
ATOM     16  C   UNL     1      36.323  34.757  13.649  1.00  0.00     0.006 A 
ATOM     17  C   UNL     1      38.317  33.174  12.792  1.00  0.00     0.000 A 
ATOM     18  C   UNL     1      36.082  33.919  12.582  1.00  0.00     0.000 A 
ATOM     19  C   UNL     1      37.100  33.122  12.157  1.00  0.00     0.000 A 
ENDBRANCH   1  14
TORSDOF 3
BEGIN_RES LYS A 135
REMARK  4 active torsions:
REMARK  status: ('A' for Active; 'I' for Inactive)
REMARK    1  A    between atoms: CA   and  CB  
REMARK    2  A    between atoms: CB   and  CG  
REMARK    3  A    between atoms: CG   and  CD  
REMARK    4  A    between atoms: CD   and  CE  
ROOT
ATOM      1  CA  LYS A 135      33.193  34.663   9.290  1.00 25.02     0.186 C 
ENDROOT
BRANCH   1   2
ATOM      2  CB  LYS A 135      32.060  35.360  10.034  1.00 26.63     0.034 C 
BRANCH   2   3
ATOM      3  CG  LYS A 135      30.840  35.602   9.183  1.00 29.45     0.005 C 
BRANCH   3   4
ATOM      4  CD  LYS A 135      30.275  34.288   8.668  1.00 32.00     0.041 C 
BRANCH   4   5
ATOM      5  CE  LYS A 135      28.775  34.392   8.473  1.00 34.25     0.338 C 
ATOM      6  NZ  LYS A 135      28.042  33.723   9.583  1.00 35.99     0.618 N 
ENDBRANCH   4   5
ENDBRANCH   3   4
ENDBRANCH   2   3
ENDBRANCH   1   2
END_RES LYS A 135
BEGIN_RES TYR A 136
REMARK  2 active torsions:
REMARK  status: ('A' for Active; 'I' for Inactive)
REMARK    5  A    between atoms: CA   and  CB  
REMARK    6  A    between atoms: CB   and  CG  
ROOT
ATOM      7  CA  TYR A 136      36.583  36.399   8.994  1.00 26.14     0.191 C 
ENDROOT
BRANCH   7   8
ATOM      8  CB  TYR A 136      37.367  36.835  10.240  1.00 28.16     0.060 C 
BRANCH   8   9
ATOM      9  CG  TYR A 136      36.767  38.047  10.908  1.00 31.88    -0.020 A 
ATOM     10  CD2 TYR A 136      35.766  37.920  11.874  1.00 32.67    -0.002 A 
ATOM     11  CE2 TYR A 136      35.213  39.052  12.487  1.00 33.89     0.027 A 
ATOM     12  CZ  TYR A 136      35.667  40.325  12.131  1.00 34.34     0.131 A 
ATOM     13  OH  TYR A 136      35.140  41.460  12.731  1.00 35.14    -0.190 OA
ATOM     14  CE1 TYR A 136      36.660  40.470  11.173  1.00 35.01     0.027 A 
ATOM     15  CD1 TYR A 136      37.198  39.335  10.565  1.00 33.57    -0.002 A 
ENDBRANCH   8   9
ENDBRANCH   7   8
END_RES TYR A 136
BEGIN_RES ASN A 133
REMARK  2 active torsions:
REMARK  status: ('A' for Active; 'I' for Inactive)
REMARK    7  A    between atoms: CA   and  CB  
REMARK    8  A    between atoms: CB   and  CG  
ROOT
ATOM     16  CA  ASN A 133      31.225  30.257  11.749  1.00 18.15     0.196 C 
ENDROOT
BRANCH  16  17
ATOM     17  CB  ASN A 133      30.092  31.240  11.460  1.00 18.27     0.126 C 
BRANCH  17  18
ATOM     18  CG  ASN A 133      28.749  30.584  11.366  1.00 18.94     0.276 C 
ATOM     19  OD1 ASN A 133      28.567  29.604  10.642  1.00 18.09    -0.269 OA
ATOM     20  ND2 ASN A 133      27.783  31.126  12.106  1.00 18.93    -0.107 N 
ENDBRANCH  17  18
ENDBRANCH  16  17
END_RES ASN A 133
