REMARK VINA RESULT:    -5.232      2.113      2.519
REMARK INTER + INTRA:          -8.789
REMARK INTER:                  -5.447
REMARK INTRA:                  -3.341
REMARK UNBOUND:                -2.333
REMARK SMILES Cc1cn(-c2ccc(S(=O)(=O)Nc3nccs3)cc2)nn1
REMARK SMILES IDX 9 1 10 2 11 3 8 4 5 5 6 6 19 7 7 8 18 9 4 10 1 11 2 12 3 13
REMARK SMILES IDX 21 14 20 15 12 16 13 18 14 19 17 20 15 21 16 22
REMARK H PARENT 12 17
REMARK Flexibility Score: inf
ROOT
ATOM      1  S   UNL     1      33.183  35.544  14.208  1.00  0.00     0.263 S 
ATOM      2  O   UNL     1      33.503  37.002  14.153  1.00  0.00    -0.201 OA
ATOM      3  O   UNL     1      33.303  35.076  15.645  1.00  0.00    -0.201 OA
ENDROOT
BRANCH   1   4
ATOM      4  C   UNL     1      31.511  35.358  13.723  1.00  0.00     0.088 A 
ATOM      5  C   UNL     1      28.903  34.951  13.008  1.00  0.00     0.066 A 
ATOM      6  C   UNL     1      29.607  33.950  13.618  1.00  0.00     0.030 A 
ATOM      7  C   UNL     1      29.503  36.152  12.756  1.00  0.00     0.030 A 
ATOM      8  C   UNL     1      30.912  34.129  13.986  1.00  0.00     0.024 A 
ATOM      9  C   UNL     1      30.808  36.353  13.114  1.00  0.00     0.024 A 
BRANCH   5  10
ATOM     10  N   UNL     1      27.531  34.670  12.657  1.00  0.00    -0.220 N 
ATOM     11  C   UNL     1      24.112  33.472  13.242  1.00  0.00     0.070 C 
ATOM     12  C   UNL     1      25.412  34.011  12.771  1.00  0.00     0.080 A 
ATOM     13  C   UNL     1      26.601  34.124  13.461  1.00  0.00     0.140 A 
ATOM     14  N   UNL     1      25.679  34.506  11.550  1.00  0.00    -0.135 NA
ATOM     15  N   UNL     1      26.942  34.890  11.504  1.00  0.00    -0.062 NA
ENDBRANCH   5  10
ENDBRANCH   1   4
BRANCH   1  16
ATOM     16  N   UNL     1      34.226  34.634  13.217  1.00  0.00    -0.255 N 
ATOM     17  H   UNL     1      33.798  34.100  12.412  1.00  0.00     0.182 HD
BRANCH  16  18
ATOM     18  C   UNL     1      35.637  34.599  13.478  1.00  0.00     0.196 A 
ATOM     19  N   UNL     1      36.405  34.978  14.215  1.00  0.00    -0.228 NA
ATOM     20  S   UNL     1      36.722  33.629  12.263  1.00  0.00    -0.105 S 
ATOM     21  C   UNL     1      37.708  34.812  14.254  1.00  0.00     0.125 A 
ATOM     22  C   UNL     1      38.236  34.066  13.251  1.00  0.00     0.089 A 
ENDBRANCH  16  18
ENDBRANCH   1  16
TORSDOF 4
BEGIN_RES LYS A 135
REMARK  4 active torsions:
REMARK  status: ('A' for Active; 'I' for Inactive)
REMARK    1  A    between atoms: CA   and  CB  
REMARK    2  A    between atoms: CB   and  CG  
REMARK    3  A    between atoms: CG   and  CD  
REMARK    4  A    between atoms: CD   and  CE  
ROOT
ATOM      1  CA  LYS A 135      33.193  34.663   9.290  1.00 25.02     0.186 C 
ENDROOT
BRANCH   1   2
ATOM      2  CB  LYS A 135      32.060  35.360  10.034  1.00 26.63     0.034 C 
BRANCH   2   3
ATOM      3  CG  LYS A 135      30.695  34.817   9.698  1.00 29.45     0.005 C 
BRANCH   3   4
ATOM      4  CD  LYS A 135      30.606  34.466   8.221  1.00 32.00     0.041 C 
BRANCH   4   5
ATOM      5  CE  LYS A 135      29.411  35.148   7.582  1.00 34.25     0.338 C 
ATOM      6  NZ  LYS A 135      28.136  34.680   8.193  1.00 35.99     0.618 N 
ENDBRANCH   4   5
ENDBRANCH   3   4
ENDBRANCH   2   3
ENDBRANCH   1   2
END_RES LYS A 135
BEGIN_RES TYR A 136
REMARK  2 active torsions:
REMARK  status: ('A' for Active; 'I' for Inactive)
REMARK    5  A    between atoms: CA   and  CB  
REMARK    6  A    between atoms: CB   and  CG  
ROOT
ATOM      7  CA  TYR A 136      36.583  36.399   8.994  1.00 26.14     0.191 C 
ENDROOT
BRANCH   7   8
ATOM      8  CB  TYR A 136      37.367  36.835  10.240  1.00 28.16     0.060 C 
BRANCH   8   9
ATOM      9  CG  TYR A 136      36.768  38.048  10.907  1.00 31.88    -0.020 A 
ATOM     10  CD2 TYR A 136      36.319  39.138  10.158  1.00 32.67    -0.002 A 
ATOM     11  CE2 TYR A 136      35.765  40.261  10.788  1.00 33.89     0.027 A 
ATOM     12  CZ  TYR A 136      35.660  40.294  12.180  1.00 34.34     0.131 A 
ATOM     13  OH  TYR A 136      35.109  41.393  12.825  1.00 35.14    -0.190 OA
ATOM     14  CE1 TYR A 136      36.102  39.221  12.941  1.00 35.01     0.027 A 
ATOM     15  CD1 TYR A 136      36.658  38.111  12.302  1.00 33.57    -0.002 A 
ENDBRANCH   8   9
ENDBRANCH   7   8
END_RES TYR A 136
BEGIN_RES ASN A 133
REMARK  2 active torsions:
REMARK  status: ('A' for Active; 'I' for Inactive)
REMARK    7  A    between atoms: CA   and  CB  
REMARK    8  A    between atoms: CB   and  CG  
ROOT
ATOM     16  CA  ASN A 133      31.225  30.257  11.749  1.00 18.15     0.196 C 
ENDROOT
BRANCH  16  17
ATOM     17  CB  ASN A 133      30.092  31.240  11.460  1.00 18.27     0.126 C 
BRANCH  17  18
ATOM     18  CG  ASN A 133      28.754  30.580  11.330  1.00 18.94     0.276 C 
ATOM     19  OD1 ASN A 133      28.595  29.599  10.601  1.00 18.09    -0.269 OA
ATOM     20  ND2 ASN A 133      27.767  31.118  12.044  1.00 18.93    -0.107 N 
ENDBRANCH  17  18
ENDBRANCH  16  17
END_RES ASN A 133
