REMARK VINA RESULT:    -2.877      8.309     10.938
REMARK INTER + INTRA:          -6.690
REMARK INTER:                  -3.500
REMARK INTRA:                  -3.190
REMARK UNBOUND:                -3.309
REMARK SMILES Cc1cn(CCC2OCCO2)nn1
REMARK SMILES IDX 5 1 4 2 1 3 2 4 3 5 13 6 12 7 6 8 7 9 8 10 11 11 9 12 10 13
REMARK H PARENT
REMARK Flexibility Score: inf
ROOT
ATOM      1  C   UNL     1      35.429  38.744   3.969  1.00  0.00     0.151 C 
ENDROOT
BRANCH   1   2
ATOM      2  N   UNL     1      34.440  39.289   4.861  1.00  0.00    -0.252 N 
ATOM      3  C   UNL     1      33.095  40.113   8.125  1.00  0.00     0.070 C 
ATOM      4  C   UNL     1      33.421  39.887   6.690  1.00  0.00     0.080 A 
ATOM      5  C   UNL     1      34.556  39.284   6.194  1.00  0.00     0.134 A 
ATOM      6  N   UNL     1      32.660  40.235   5.638  1.00  0.00    -0.136 NA
ATOM      7  N   UNL     1      33.295  39.864   4.539  1.00  0.00    -0.067 NA
ENDBRANCH   1   2
BRANCH   1   8
ATOM      8  C   UNL     1      36.357  37.876   4.749  1.00  0.00     0.086 C 
BRANCH   8   9
ATOM      9  C   UNL     1      37.807  38.294   4.610  1.00  0.00     0.251 C 
ATOM     10  O   UNL     1      37.981  39.307   3.701  1.00  0.00    -0.350 OA
ATOM     11  O   UNL     1      38.629  37.249   4.265  1.00  0.00    -0.350 OA
ATOM     12  C   UNL     1      38.902  38.902   2.763  1.00  0.00     0.192 C 
ATOM     13  C   UNL     1      38.840  37.393   2.884  1.00  0.00     0.192 C 
ENDBRANCH   8   9
ENDBRANCH   1   8
TORSDOF 3
BEGIN_RES LYS A 135
REMARK  4 active torsions:
REMARK  status: ('A' for Active; 'I' for Inactive)
REMARK    1  A    between atoms: CA   and  CB  
REMARK    2  A    between atoms: CB   and  CG  
REMARK    3  A    between atoms: CG   and  CD  
REMARK    4  A    between atoms: CD   and  CE  
ROOT
ATOM      1  CA  LYS A 135      33.193  34.663   9.290  1.00 25.02     0.186 C 
ENDROOT
BRANCH   1   2
ATOM      2  CB  LYS A 135      32.060  35.360  10.034  1.00 26.63     0.034 C 
BRANCH   2   3
ATOM      3  CG  LYS A 135      30.696  34.810   9.706  1.00 29.45     0.005 C 
BRANCH   3   4
ATOM      4  CD  LYS A 135      30.586  34.497   8.222  1.00 32.00     0.041 C 
BRANCH   4   5
ATOM      5  CE  LYS A 135      29.266  34.997   7.668  1.00 34.25     0.338 C 
ATOM      6  NZ  LYS A 135      28.928  36.341   8.216  1.00 35.99     0.618 N 
ENDBRANCH   4   5
ENDBRANCH   3   4
ENDBRANCH   2   3
ENDBRANCH   1   2
END_RES LYS A 135
BEGIN_RES TYR A 136
REMARK  2 active torsions:
REMARK  status: ('A' for Active; 'I' for Inactive)
REMARK    5  A    between atoms: CA   and  CB  
REMARK    6  A    between atoms: CB   and  CG  
ROOT
ATOM      7  CA  TYR A 136      36.583  36.399   8.994  1.00 26.14     0.191 C 
ENDROOT
BRANCH   7   8
ATOM      8  CB  TYR A 136      37.367  36.835  10.240  1.00 28.16     0.060 C 
BRANCH   8   9
ATOM      9  CG  TYR A 136      37.261  38.317  10.503  1.00 31.88    -0.020 A 
ATOM     10  CD2 TYR A 136      36.492  39.144   9.681  1.00 32.67    -0.002 A 
ATOM     11  CE2 TYR A 136      36.402  40.520   9.933  1.00 33.89     0.027 A 
ATOM     12  CZ  TYR A 136      37.087  41.073  11.018  1.00 34.34     0.131 A 
ATOM     13  OH  TYR A 136      37.006  42.432  11.290  1.00 35.14    -0.190 OA
ATOM     14  CE1 TYR A 136      37.856  40.266  11.844  1.00 35.01     0.027 A 
ATOM     15  CD1 TYR A 136      37.944  38.899  11.579  1.00 33.57    -0.002 A 
ENDBRANCH   8   9
ENDBRANCH   7   8
END_RES TYR A 136
BEGIN_RES ASN A 133
REMARK  2 active torsions:
REMARK  status: ('A' for Active; 'I' for Inactive)
REMARK    7  A    between atoms: CA   and  CB  
REMARK    8  A    between atoms: CB   and  CG  
ROOT
ATOM     16  CA  ASN A 133      31.225  30.257  11.749  1.00 18.15     0.196 C 
ENDROOT
BRANCH  16  17
ATOM     17  CB  ASN A 133      30.092  31.240  11.460  1.00 18.27     0.126 C 
BRANCH  17  18
ATOM     18  CG  ASN A 133      28.750  30.583  11.361  1.00 18.94     0.276 C 
ATOM     19  OD1 ASN A 133      28.568  29.612  10.625  1.00 18.09    -0.269 OA
ATOM     20  ND2 ASN A 133      27.784  31.115  12.109  1.00 18.93    -0.107 N 
ENDBRANCH  17  18
ENDBRANCH  16  17
END_RES ASN A 133
