REMARK VINA RESULT:    -4.079      3.018      3.730
REMARK INTER + INTRA:          -8.503
REMARK INTER:                  -5.472
REMARK INTRA:                  -3.030
REMARK UNBOUND:                -3.590
REMARK SMILES Cc1cn(CC(O)c2ccccc2)nn1
REMARK SMILES IDX 5 1 4 2 1 3 2 4 3 5 15 6 14 7 6 8 7 9 8 11 9 12 13 13 10 14
REMARK SMILES IDX 12 15 11 16
REMARK H PARENT 7 10
REMARK Flexibility Score: inf
ROOT
ATOM      1  C   UNL     1      33.024  35.647  14.640  1.00  0.00     0.182 C 
ENDROOT
BRANCH   1   2
ATOM      2  N   UNL     1      34.396  35.312  14.289  1.00  0.00    -0.249 N 
ATOM      3  C   UNL     1      36.987  33.737  12.246  1.00  0.00     0.070 C 
ATOM      4  C   UNL     1      36.155  34.479  13.247  1.00  0.00     0.080 A 
ATOM      5  C   UNL     1      34.779  34.562  13.231  1.00  0.00     0.134 A 
ATOM      6  N   UNL     1      36.572  35.181  14.318  1.00  0.00    -0.136 NA
ATOM      7  N   UNL     1      35.500  35.672  14.927  1.00  0.00    -0.067 NA
ENDBRANCH   1   2
BRANCH   1   8
ATOM      8  C   UNL     1      32.863  35.422  16.132  1.00  0.00     0.166 C 
BRANCH   8   9
ATOM      9  O   UNL     1      32.382  36.566  16.770  1.00  0.00    -0.386 OA
ATOM     10  H   UNL     1      31.401  36.628  16.736  1.00  0.00     0.211 HD
ENDBRANCH   8   9
BRANCH   8  11
ATOM     11  C   UNL     1      32.052  34.238  16.442  1.00  0.00    -0.018 A 
ATOM     12  C   UNL     1      31.497  34.009  17.695  1.00  0.00     0.006 A 
ATOM     13  C   UNL     1      31.811  33.298  15.475  1.00  0.00     0.006 A 
ATOM     14  C   UNL     1      30.742  32.888  17.948  1.00  0.00     0.000 A 
ATOM     15  C   UNL     1      31.056  32.163  15.700  1.00  0.00     0.000 A 
ATOM     16  C   UNL     1      30.526  31.972  16.946  1.00  0.00     0.000 A 
ENDBRANCH   8  11
ENDBRANCH   1   8
TORSDOF 4
BEGIN_RES LYS A 135
REMARK  4 active torsions:
REMARK  status: ('A' for Active; 'I' for Inactive)
REMARK    1  A    between atoms: CA   and  CB  
REMARK    2  A    between atoms: CB   and  CG  
REMARK    3  A    between atoms: CG   and  CD  
REMARK    4  A    between atoms: CD   and  CE  
ROOT
ATOM      1  CA  LYS A 135      33.193  34.663   9.290  1.00 25.02     0.186 C 
ENDROOT
BRANCH   1   2
ATOM      2  CB  LYS A 135      32.060  35.360  10.034  1.00 26.63     0.034 C 
BRANCH   2   3
ATOM      3  CG  LYS A 135      30.811  35.528   9.208  1.00 29.45     0.005 C 
BRANCH   3   4
ATOM      4  CD  LYS A 135      29.975  34.258   9.234  1.00 32.00     0.041 C 
BRANCH   4   5
ATOM      5  CE  LYS A 135      28.748  34.446  10.106  1.00 34.25     0.338 C 
ATOM      6  NZ  LYS A 135      27.588  33.680   9.571  1.00 35.99     0.618 N 
ENDBRANCH   4   5
ENDBRANCH   3   4
ENDBRANCH   2   3
ENDBRANCH   1   2
END_RES LYS A 135
BEGIN_RES TYR A 136
REMARK  2 active torsions:
REMARK  status: ('A' for Active; 'I' for Inactive)
REMARK    5  A    between atoms: CA   and  CB  
REMARK    6  A    between atoms: CB   and  CG  
ROOT
ATOM      7  CA  TYR A 136      36.583  36.399   8.994  1.00 26.14     0.191 C 
ENDROOT
BRANCH   7   8
ATOM      8  CB  TYR A 136      37.367  36.835  10.240  1.00 28.16     0.060 C 
BRANCH   8   9
ATOM      9  CG  TYR A 136      36.802  38.082  10.874  1.00 31.88    -0.020 A 
ATOM     10  CD2 TYR A 136      37.049  39.345  10.332  1.00 32.67    -0.002 A 
ATOM     11  CE2 TYR A 136      36.520  40.497  10.930  1.00 33.89     0.027 A 
ATOM     12  CZ  TYR A 136      35.738  40.385  12.082  1.00 34.34     0.131 A 
ATOM     13  OH  TYR A 136      35.198  41.511  12.686  1.00 35.14    -0.190 OA
ATOM     14  CE1 TYR A 136      35.483  39.138  12.635  1.00 35.01     0.027 A 
ATOM     15  CD1 TYR A 136      36.020  37.998  12.034  1.00 33.57    -0.002 A 
ENDBRANCH   8   9
ENDBRANCH   7   8
END_RES TYR A 136
BEGIN_RES ASN A 133
REMARK  2 active torsions:
REMARK  status: ('A' for Active; 'I' for Inactive)
REMARK    7  A    between atoms: CA   and  CB  
REMARK    8  A    between atoms: CB   and  CG  
ROOT
ATOM     16  CA  ASN A 133      31.225  30.257  11.749  1.00 18.15     0.196 C 
ENDROOT
BRANCH  16  17
ATOM     17  CB  ASN A 133      30.092  31.240  11.460  1.00 18.27     0.126 C 
BRANCH  17  18
ATOM     18  CG  ASN A 133      28.757  30.578  11.314  1.00 18.94     0.276 C 
ATOM     19  OD1 ASN A 133      28.601  29.614  10.562  1.00 18.09    -0.269 OA
ATOM     20  ND2 ASN A 133      27.767  31.096  12.040  1.00 18.93    -0.107 N 
ENDBRANCH  17  18
ENDBRANCH  16  17
END_RES ASN A 133
