REMARK VINA RESULT:    -2.879      1.905      2.285
REMARK INTER + INTRA:          -6.637
REMARK INTER:                  -3.603
REMARK INTRA:                  -3.033
REMARK UNBOUND:                -3.337
REMARK SMILES Cc1cn(C(C)(C)C(=O)O)nn1
REMARK SMILES IDX 5 1 6 2 7 3 4 4 1 5 2 6 3 7 12 8 11 9 8 10 9 11 10 12
REMARK H PARENT 10 13
REMARK Flexibility Score: inf
ROOT
ATOM      1  C   UNL     1      38.645  34.962  15.491  1.00  0.00     0.155 C 
ATOM      2  C   UNL     1      38.662  33.853  16.522  1.00  0.00     0.049 C 
ATOM      3  C   UNL     1      38.409  36.257  16.241  1.00  0.00     0.049 C 
ENDROOT
BRANCH   1   4
ATOM      4  N   UNL     1      37.561  34.810  14.545  1.00  0.00    -0.235 N 
ATOM      5  C   UNL     1      34.505  35.749  12.845  1.00  0.00     0.070 C 
ATOM      6  C   UNL     1      35.750  35.136  13.376  1.00  0.00     0.080 A 
ATOM      7  C   UNL     1      36.548  35.663  14.365  1.00  0.00     0.135 A 
ATOM      8  N   UNL     1      36.301  33.976  12.979  1.00  0.00    -0.136 NA
ATOM      9  N   UNL     1      37.386  33.814  13.704  1.00  0.00    -0.066 NA
ENDBRANCH   1   4
BRANCH   1  10
ATOM     10  C   UNL     1      39.922  34.977  14.752  1.00  0.00     0.331 C 
ATOM     11  O   UNL     1      40.674  35.986  14.796  1.00  0.00    -0.250 OA
BRANCH  10  12
ATOM     12  O   UNL     1      40.259  33.849  14.013  1.00  0.00    -0.479 OA
ATOM     13  H   UNL     1      40.525  34.002  13.035  1.00  0.00     0.296 HD
ENDBRANCH  10  12
ENDBRANCH   1  10
TORSDOF 3
BEGIN_RES LYS A 135
REMARK  4 active torsions:
REMARK  status: ('A' for Active; 'I' for Inactive)
REMARK    1  A    between atoms: CA   and  CB  
REMARK    2  A    between atoms: CB   and  CG  
REMARK    3  A    between atoms: CG   and  CD  
REMARK    4  A    between atoms: CD   and  CE  
ROOT
ATOM      1  CA  LYS A 135      33.193  34.663   9.290  1.00 25.02     0.186 C 
ENDROOT
BRANCH   1   2
ATOM      2  CB  LYS A 135      32.060  35.360  10.034  1.00 26.63     0.034 C 
BRANCH   2   3
ATOM      3  CG  LYS A 135      30.701  34.778   9.744  1.00 29.45     0.005 C 
BRANCH   3   4
ATOM      4  CD  LYS A 135      30.128  35.364   8.462  1.00 32.00     0.041 C 
BRANCH   4   5
ATOM      5  CE  LYS A 135      28.794  34.723   8.133  1.00 34.25     0.338 C 
ATOM      6  NZ  LYS A 135      28.145  35.399   6.976  1.00 35.99     0.618 N 
ENDBRANCH   4   5
ENDBRANCH   3   4
ENDBRANCH   2   3
ENDBRANCH   1   2
END_RES LYS A 135
BEGIN_RES TYR A 136
REMARK  2 active torsions:
REMARK  status: ('A' for Active; 'I' for Inactive)
REMARK    5  A    between atoms: CA   and  CB  
REMARK    6  A    between atoms: CB   and  CG  
ROOT
ATOM      7  CA  TYR A 136      36.583  36.399   8.994  1.00 26.14     0.191 C 
ENDROOT
BRANCH   7   8
ATOM      8  CB  TYR A 136      37.367  36.835  10.240  1.00 28.16     0.060 C 
BRANCH   8   9
ATOM      9  CG  TYR A 136      36.883  38.150  10.799  1.00 31.88    -0.020 A 
ATOM     10  CD2 TYR A 136      36.113  39.024  10.029  1.00 32.67    -0.002 A 
ATOM     11  CE2 TYR A 136      35.670  40.244  10.557  1.00 33.89     0.027 A 
ATOM     12  CZ  TYR A 136      36.001  40.593  11.869  1.00 34.34     0.131 A 
ATOM     13  OH  TYR A 136      35.567  41.793  12.415  1.00 35.14    -0.190 OA
ATOM     14  CE1 TYR A 136      36.766  39.738  12.648  1.00 35.01     0.027 A 
ATOM     15  CD1 TYR A 136      37.207  38.528  12.108  1.00 33.57    -0.002 A 
ENDBRANCH   8   9
ENDBRANCH   7   8
END_RES TYR A 136
BEGIN_RES ASN A 133
REMARK  2 active torsions:
REMARK  status: ('A' for Active; 'I' for Inactive)
REMARK    7  A    between atoms: CA   and  CB  
REMARK    8  A    between atoms: CB   and  CG  
ROOT
ATOM     16  CA  ASN A 133      31.225  30.257  11.749  1.00 18.15     0.196 C 
ENDROOT
BRANCH  16  17
ATOM     17  CB  ASN A 133      30.092  31.240  11.460  1.00 18.27     0.126 C 
BRANCH  17  18
ATOM     18  CG  ASN A 133      28.755  30.580  11.330  1.00 18.94     0.276 C 
ATOM     19  OD1 ASN A 133      28.585  29.625  10.569  1.00 18.09    -0.269 OA
ATOM     20  ND2 ASN A 133      27.778  31.089  12.079  1.00 18.93    -0.107 N 
ENDBRANCH  17  18
ENDBRANCH  16  17
END_RES ASN A 133
