REMARK VINA RESULT:    -5.423      0.000      0.000
REMARK INTER + INTRA:          -8.632
REMARK INTER:                  -5.437
REMARK INTRA:                  -3.195
REMARK UNBOUND:                -2.892
REMARK SMILES Cc1cn(-c2ccc3[nH]ncc3c2)nn1
REMARK SMILES IDX 5 1 6 2 7 3 8 4 9 5 10 6 11 7 12 8 13 9 4 11 1 12 2 13 3 14
REMARK SMILES IDX 15 15 14 16
REMARK H PARENT 9 10
REMARK Flexibility Score: inf
ROOT
ATOM      1  C   UNL     1      38.749  34.193  13.373  1.00  0.00     0.067 A 
ATOM      2  C   UNL     1      38.257  33.317  12.426  1.00  0.00     0.030 A 
ATOM      3  C   UNL     1      36.897  33.218  12.235  1.00  0.00     0.030 A 
ATOM      4  C   UNL     1      35.979  33.967  12.959  1.00  0.00     0.065 A 
ATOM      5  N   UNL     1      34.645  34.072  12.983  1.00  0.00    -0.278 N 
ATOM      6  N   UNL     1      34.272  34.955  13.883  1.00  0.00    -0.183 NA
ATOM      7  C   UNL     1      35.373  35.454  14.474  1.00  0.00     0.143 A 
ATOM      8  C   UNL     1      36.481  34.850  13.915  1.00  0.00     0.022 A 
ATOM      9  C   UNL     1      37.846  34.951  14.107  1.00  0.00     0.040 A 
ATOM     10  H   UNL     1      33.999  33.534  12.378  1.00  0.00     0.190 HD
ENDROOT
BRANCH   1  11
ATOM     11  N   UNL     1      40.158  34.284  13.560  1.00  0.00    -0.220 N 
ATOM     12  C   UNL     1      43.736  33.945  12.898  1.00  0.00     0.070 C 
ATOM     13  C   UNL     1      42.364  34.190  13.380  1.00  0.00     0.080 A 
ATOM     14  C   UNL     1      41.162  33.887  12.772  1.00  0.00     0.140 A 
ATOM     15  N   UNL     1      42.027  34.778  14.548  1.00  0.00    -0.135 NA
ATOM     16  N   UNL     1      40.694  34.827  14.642  1.00  0.00    -0.062 NA
ENDBRANCH   1  11
TORSDOF 1
BEGIN_RES LYS A 135
REMARK  4 active torsions:
REMARK  status: ('A' for Active; 'I' for Inactive)
REMARK    1  A    between atoms: CA   and  CB  
REMARK    2  A    between atoms: CB   and  CG  
REMARK    3  A    between atoms: CG   and  CD  
REMARK    4  A    between atoms: CD   and  CE  
ROOT
ATOM      1  CA  LYS A 135      33.193  34.663   9.290  1.00 25.02     0.186 C 
ENDROOT
BRANCH   1   2
ATOM      2  CB  LYS A 135      32.060  35.360  10.034  1.00 26.63     0.034 C 
BRANCH   2   3
ATOM      3  CG  LYS A 135      30.815  35.541   9.204  1.00 29.45     0.005 C 
BRANCH   3   4
ATOM      4  CD  LYS A 135      30.192  34.194   8.872  1.00 32.00     0.041 C 
BRANCH   4   5
ATOM      5  CE  LYS A 135      28.709  34.349   8.589  1.00 34.25     0.338 C 
ATOM      6  NZ  LYS A 135      27.890  33.710   9.656  1.00 35.99     0.618 N 
ENDBRANCH   4   5
ENDBRANCH   3   4
ENDBRANCH   2   3
ENDBRANCH   1   2
END_RES LYS A 135
BEGIN_RES TYR A 136
REMARK  2 active torsions:
REMARK  status: ('A' for Active; 'I' for Inactive)
REMARK    5  A    between atoms: CA   and  CB  
REMARK    6  A    between atoms: CB   and  CG  
ROOT
ATOM      7  CA  TYR A 136      36.583  36.399   8.994  1.00 26.14     0.191 C 
ENDROOT
BRANCH   7   8
ATOM      8  CB  TYR A 136      37.367  36.835  10.240  1.00 28.16     0.060 C 
BRANCH   8   9
ATOM      9  CG  TYR A 136      36.763  38.044  10.912  1.00 31.88    -0.020 A 
ATOM     10  CD2 TYR A 136      36.143  39.050  10.168  1.00 32.67    -0.002 A 
ATOM     11  CE2 TYR A 136      35.586  40.170  10.801  1.00 33.89     0.027 A 
ATOM     12  CZ  TYR A 136      35.653  40.284  12.192  1.00 34.34     0.131 A 
ATOM     13  OH  TYR A 136      35.103  41.380  12.841  1.00 35.14    -0.190 OA
ATOM     14  CE1 TYR A 136      36.267  39.295  12.947  1.00 35.01     0.027 A 
ATOM     15  CD1 TYR A 136      36.823  38.187  12.304  1.00 33.57    -0.002 A 
ENDBRANCH   8   9
ENDBRANCH   7   8
END_RES TYR A 136
BEGIN_RES ASN A 133
REMARK  2 active torsions:
REMARK  status: ('A' for Active; 'I' for Inactive)
REMARK    7  A    between atoms: CA   and  CB  
REMARK    8  A    between atoms: CB   and  CG  
ROOT
ATOM     16  CA  ASN A 133      31.225  30.257  11.749  1.00 18.15     0.196 C 
ENDROOT
BRANCH  16  17
ATOM     17  CB  ASN A 133      30.092  31.240  11.460  1.00 18.27     0.126 C 
BRANCH  17  18
ATOM     18  CG  ASN A 133      28.754  30.580  11.332  1.00 18.94     0.276 C 
ATOM     19  OD1 ASN A 133      28.583  29.628  10.568  1.00 18.09    -0.269 OA
ATOM     20  ND2 ASN A 133      27.780  31.086  12.086  1.00 18.93    -0.107 N 
ENDBRANCH  17  18
ENDBRANCH  16  17
END_RES ASN A 133
