REMARK VINA RESULT:    -3.458      1.633      2.192
REMARK INTER + INTRA:          -6.809
REMARK INTER:                  -3.608
REMARK INTRA:                  -3.201
REMARK UNBOUND:                -3.149
REMARK SMILES Cc1cn(-c2ccncc2)nn1
REMARK SMILES IDX 1 1 2 2 3 3 4 4 11 5 12 6 5 7 6 8 10 9 7 10 9 11 8 12
REMARK H PARENT
REMARK Flexibility Score: inf
ROOT
ATOM      1  C   UNL     1      21.651  30.024  -1.980  1.00  0.00     0.070 C 
ATOM      2  C   UNL     1      22.043  31.261  -1.277  1.00  0.00     0.080 A 
ATOM      3  C   UNL     1      22.216  32.534  -1.803  1.00  0.00     0.140 A 
ATOM      4  N   UNL     1      22.575  33.368  -0.815  1.00  0.00    -0.220 N 
ATOM      5  N   UNL     1      22.623  32.645   0.292  1.00  0.00    -0.062 NA
ATOM      6  N   UNL     1      22.309  31.383   0.035  1.00  0.00    -0.135 NA
ENDROOT
BRANCH   4   7
ATOM      7  C   UNL     1      22.844  34.759  -0.954  1.00  0.00     0.069 A 
ATOM      8  C   UNL     1      22.216  35.678  -0.130  1.00  0.00     0.048 A 
ATOM      9  C   UNL     1      23.718  35.261  -1.888  1.00  0.00     0.048 A 
ATOM     10  C   UNL     1      22.481  37.013  -0.270  1.00  0.00     0.113 A 
ATOM     11  C   UNL     1      23.982  36.605  -2.027  1.00  0.00     0.113 A 
ATOM     12  N   UNL     1      23.341  37.444  -1.197  1.00  0.00    -0.265 NA
ENDBRANCH   4   7
TORSDOF 1
BEGIN_RES LYS A 135
REMARK  4 active torsions:
REMARK  status: ('A' for Active; 'I' for Inactive)
REMARK    1  A    between atoms: CA   and  CB  
REMARK    2  A    between atoms: CB   and  CG  
REMARK    3  A    between atoms: CG   and  CD  
REMARK    4  A    between atoms: CD   and  CE  
ROOT
ATOM      1  CA  LYS A 135      33.193  34.663   9.290  1.00 25.02     0.186 C 
ENDROOT
BRANCH   1   2
ATOM      2  CB  LYS A 135      32.060  35.360  10.034  1.00 26.63     0.034 C 
BRANCH   2   3
ATOM      3  CG  LYS A 135      30.832  35.584   9.189  1.00 29.45     0.005 C 
BRANCH   3   4
ATOM      4  CD  LYS A 135      30.243  34.257   8.737  1.00 32.00     0.041 C 
BRANCH   4   5
ATOM      5  CE  LYS A 135      28.758  34.399   8.464  1.00 34.25     0.338 C 
ATOM      6  NZ  LYS A 135      27.951  33.755   9.537  1.00 35.99     0.618 N 
ENDBRANCH   4   5
ENDBRANCH   3   4
ENDBRANCH   2   3
ENDBRANCH   1   2
END_RES LYS A 135
BEGIN_RES TYR A 136
REMARK  2 active torsions:
REMARK  status: ('A' for Active; 'I' for Inactive)
REMARK    5  A    between atoms: CA   and  CB  
REMARK    6  A    between atoms: CB   and  CG  
ROOT
ATOM      7  CA  TYR A 136      36.583  36.399   8.994  1.00 26.14     0.191 C 
ENDROOT
BRANCH   7   8
ATOM      8  CB  TYR A 136      37.367  36.835  10.240  1.00 28.16     0.060 C 
BRANCH   8   9
ATOM      9  CG  TYR A 136      37.192  38.301  10.552  1.00 31.88    -0.020 A 
ATOM     10  CD2 TYR A 136      37.545  38.822  11.799  1.00 32.67    -0.002 A 
ATOM     11  CE2 TYR A 136      37.377  40.185  12.080  1.00 33.89     0.027 A 
ATOM     12  CZ  TYR A 136      36.850  41.034  11.103  1.00 34.34     0.131 A 
ATOM     13  OH  TYR A 136      36.681  42.388  11.356  1.00 35.14    -0.190 OA
ATOM     14  CE1 TYR A 136      36.493  40.533   9.860  1.00 35.01     0.027 A 
ATOM     15  CD1 TYR A 136      36.659  39.173   9.594  1.00 33.57    -0.002 A 
ENDBRANCH   8   9
ENDBRANCH   7   8
END_RES TYR A 136
BEGIN_RES ASN A 133
REMARK  2 active torsions:
REMARK  status: ('A' for Active; 'I' for Inactive)
REMARK    7  A    between atoms: CA   and  CB  
REMARK    8  A    between atoms: CB   and  CG  
ROOT
ATOM     16  CA  ASN A 133      31.225  30.257  11.749  1.00 18.15     0.196 C 
ENDROOT
BRANCH  16  17
ATOM     17  CB  ASN A 133      30.092  31.240  11.460  1.00 18.27     0.126 C 
BRANCH  17  18
ATOM     18  CG  ASN A 133      28.747  30.586  11.381  1.00 18.94     0.276 C 
ATOM     19  OD1 ASN A 133      28.558  29.601  10.666  1.00 18.09    -0.269 OA
ATOM     20  ND2 ASN A 133      27.787  31.137  12.124  1.00 18.93    -0.107 N 
ENDBRANCH  17  18
ENDBRANCH  16  17
END_RES ASN A 133
