REMARK VINA RESULT:    -5.325      3.074      4.119
REMARK INTER + INTRA:          -7.863
REMARK INTER:                  -4.802
REMARK INTRA:                  -3.062
REMARK UNBOUND:                -2.227
REMARK SMILES Cc1ccc(-n2cc(C)nn2)cc1
REMARK SMILES IDX 5 1 4 2 3 3 2 4 1 5 13 6 12 7 6 8 9 9 8 10 7 11 10 12 11 13
REMARK H PARENT
REMARK Flexibility Score: inf
ROOT
ATOM      1  C   UNL     1      35.164  36.134  13.700  1.00  0.00     0.066 A 
ATOM      2  C   UNL     1      34.998  37.125  14.633  1.00  0.00     0.029 A 
ATOM      3  C   UNL     1      33.976  38.042  14.489  1.00  0.00     0.005 A 
ATOM      4  C   UNL     1      33.093  38.012  13.429  1.00  0.00    -0.051 A 
ATOM      5  C   UNL     1      31.999  39.010  13.293  1.00  0.00     0.044 C 
ATOM      6  C   UNL     1      33.281  37.002  12.501  1.00  0.00     0.005 A 
ATOM      7  C   UNL     1      34.298  36.073  12.628  1.00  0.00     0.029 A 
ENDROOT
BRANCH   1   8
ATOM      8  N   UNL     1      36.195  35.190  13.826  1.00  0.00    -0.220 N 
ATOM      9  C   UNL     1      38.191  32.398  12.622  1.00  0.00     0.070 C 
ATOM     10  C   UNL     1      37.570  33.524  13.381  1.00  0.00     0.080 A 
ATOM     11  C   UNL     1      36.510  34.261  12.904  1.00  0.00     0.140 A 
ATOM     12  N   UNL     1      37.869  34.020  14.575  1.00  0.00    -0.135 NA
ATOM     13  N   UNL     1      37.047  35.016  14.839  1.00  0.00    -0.062 NA
ENDBRANCH   1   8
TORSDOF 1
BEGIN_RES LYS A 135
REMARK  4 active torsions:
REMARK  status: ('A' for Active; 'I' for Inactive)
REMARK    1  A    between atoms: CA   and  CB  
REMARK    2  A    between atoms: CB   and  CG  
REMARK    3  A    between atoms: CG   and  CD  
REMARK    4  A    between atoms: CD   and  CE  
ROOT
ATOM      1  CA  LYS A 135      33.193  34.663   9.290  1.00 25.02     0.186 C 
ENDROOT
BRANCH   1   2
ATOM      2  CB  LYS A 135      32.060  35.360  10.034  1.00 26.63     0.034 C 
BRANCH   2   3
ATOM      3  CG  LYS A 135      30.823  35.560   9.197  1.00 29.45     0.005 C 
BRANCH   3   4
ATOM      4  CD  LYS A 135      30.205  34.222   8.824  1.00 32.00     0.041 C 
BRANCH   4   5
ATOM      5  CE  LYS A 135      28.719  34.377   8.561  1.00 34.25     0.338 C 
ATOM      6  NZ  LYS A 135      27.914  33.673   9.598  1.00 35.99     0.618 N 
ENDBRANCH   4   5
ENDBRANCH   3   4
ENDBRANCH   2   3
ENDBRANCH   1   2
END_RES LYS A 135
BEGIN_RES TYR A 136
REMARK  2 active torsions:
REMARK  status: ('A' for Active; 'I' for Inactive)
REMARK    5  A    between atoms: CA   and  CB  
REMARK    6  A    between atoms: CB   and  CG  
ROOT
ATOM      7  CA  TYR A 136      36.583  36.399   8.994  1.00 26.14     0.191 C 
ENDROOT
BRANCH   7   8
ATOM      8  CB  TYR A 136      37.367  36.835  10.240  1.00 28.16     0.060 C 
BRANCH   8   9
ATOM      9  CG  TYR A 136      36.789  38.070  10.886  1.00 31.88    -0.020 A 
ATOM     10  CD2 TYR A 136      37.313  38.575  12.079  1.00 32.67    -0.002 A 
ATOM     11  CE2 TYR A 136      36.768  39.721  12.672  1.00 33.89     0.027 A 
ATOM     12  CZ  TYR A 136      35.688  40.369  12.067  1.00 34.34     0.131 A 
ATOM     13  OH  TYR A 136      35.137  41.510  12.633  1.00 35.14    -0.190 OA
ATOM     14  CE1 TYR A 136      35.154  39.881  10.883  1.00 35.01     0.027 A 
ATOM     15  CD1 TYR A 136      35.702  38.734  10.305  1.00 33.57    -0.002 A 
ENDBRANCH   8   9
ENDBRANCH   7   8
END_RES TYR A 136
BEGIN_RES ASN A 133
REMARK  2 active torsions:
REMARK  status: ('A' for Active; 'I' for Inactive)
REMARK    7  A    between atoms: CA   and  CB  
REMARK    8  A    between atoms: CB   and  CG  
ROOT
ATOM     16  CA  ASN A 133      31.225  30.257  11.749  1.00 18.15     0.196 C 
ENDROOT
BRANCH  16  17
ATOM     17  CB  ASN A 133      30.092  31.240  11.460  1.00 18.27     0.126 C 
BRANCH  17  18
ATOM     18  CG  ASN A 133      28.749  30.584  11.368  1.00 18.94     0.276 C 
ATOM     19  OD1 ASN A 133      28.559  29.621  10.623  1.00 18.09    -0.269 OA
ATOM     20  ND2 ASN A 133      27.791  31.108  12.132  1.00 18.93    -0.107 N 
ENDBRANCH  17  18
ENDBRANCH  16  17
END_RES ASN A 133
