REMARK VINA RESULT:    -3.713      6.311      9.256
REMARK INTER + INTRA:          -7.055
REMARK INTER:                  -4.137
REMARK INTRA:                  -2.918
REMARK UNBOUND:                -2.907
REMARK SMILES Cc1cn(Cc2ccccc2Br)nn1
REMARK SMILES IDX 5 1 4 2 1 3 2 4 3 5 14 6 13 7 6 8 7 9 11 10 8 11 10 12 12 13
REMARK SMILES IDX 9 14
REMARK H PARENT
REMARK Flexibility Score: inf
ROOT
ATOM      1  C   UNL     1      37.285  37.476   2.927  1.00  0.00     0.182 C 
ENDROOT
BRANCH   1   2
ATOM      2  N   UNL     1      38.595  37.488   3.541  1.00  0.00    -0.248 N 
ATOM      3  C   UNL     1      41.760  39.103   4.487  1.00  0.00     0.070 C 
ATOM      4  C   UNL     1      40.571  38.219   4.227  1.00  0.00     0.080 A 
ATOM      5  C   UNL     1      39.422  38.561   3.564  1.00  0.00     0.134 A 
ATOM      6  N   UNL     1      40.414  36.917   4.601  1.00  0.00    -0.136 NA
ATOM      7  N   UNL     1      39.225  36.546   4.165  1.00  0.00    -0.067 NA
ENDBRANCH   1   2
BRANCH   1   8
ATOM      8  C   UNL     1      36.274  38.233   3.692  1.00  0.00    -0.012 A 
ATOM      9  C   UNL     1      36.103  37.940   5.022  1.00  0.00     0.007 A 
ATOM     10  C   UNL     1      35.511  39.220   3.060  1.00  0.00     0.023 A 
ATOM     11  C   UNL     1      35.163  38.630   5.755  1.00  0.00     0.000 A 
ATOM     12  C   UNL     1      34.573  39.904   3.800  1.00  0.00     0.016 A 
ATOM     13  Br  UNL     1      35.832  39.541   1.213  1.00  0.00    -0.050 Br
ATOM     14  C   UNL     1      34.418  39.601   5.117  1.00  0.00     0.001 A 
ENDBRANCH   1   8
TORSDOF 2
BEGIN_RES LYS A 135
REMARK  4 active torsions:
REMARK  status: ('A' for Active; 'I' for Inactive)
REMARK    1  A    between atoms: CA   and  CB  
REMARK    2  A    between atoms: CB   and  CG  
REMARK    3  A    between atoms: CG   and  CD  
REMARK    4  A    between atoms: CD   and  CE  
ROOT
ATOM      1  CA  LYS A 135      33.193  34.663   9.290  1.00 25.02     0.186 C 
ENDROOT
BRANCH   1   2
ATOM      2  CB  LYS A 135      32.060  35.360  10.034  1.00 26.63     0.034 C 
BRANCH   2   3
ATOM      3  CG  LYS A 135      30.690  34.870   9.641  1.00 29.45     0.005 C 
BRANCH   3   4
ATOM      4  CD  LYS A 135      30.106  35.737   8.536  1.00 32.00     0.041 C 
BRANCH   4   5
ATOM      5  CE  LYS A 135      29.111  34.947   7.709  1.00 34.25     0.338 C 
ATOM      6  NZ  LYS A 135      28.798  35.647   6.433  1.00 35.99     0.618 N 
ENDBRANCH   4   5
ENDBRANCH   3   4
ENDBRANCH   2   3
ENDBRANCH   1   2
END_RES LYS A 135
BEGIN_RES TYR A 136
REMARK  2 active torsions:
REMARK  status: ('A' for Active; 'I' for Inactive)
REMARK    5  A    between atoms: CA   and  CB  
REMARK    6  A    between atoms: CB   and  CG  
ROOT
ATOM      7  CA  TYR A 136      36.583  36.399   8.994  1.00 26.14     0.191 C 
ENDROOT
BRANCH   7   8
ATOM      8  CB  TYR A 136      37.367  36.835  10.240  1.00 28.16     0.060 C 
BRANCH   8   9
ATOM      9  CG  TYR A 136      37.281  38.321  10.489  1.00 31.88    -0.020 A 
ATOM     10  CD2 TYR A 136      37.794  38.889  11.657  1.00 32.67    -0.002 A 
ATOM     11  CE2 TYR A 136      37.708  40.270  11.880  1.00 33.89     0.027 A 
ATOM     12  CZ  TYR A 136      37.103  41.090  10.924  1.00 34.34     0.131 A 
ATOM     13  OH  TYR A 136      37.013  42.461  11.120  1.00 35.14    -0.190 OA
ATOM     14  CE1 TYR A 136      36.587  40.543   9.758  1.00 35.01     0.027 A 
ATOM     15  CD1 TYR A 136      36.673  39.165   9.551  1.00 33.57    -0.002 A 
ENDBRANCH   8   9
ENDBRANCH   7   8
END_RES TYR A 136
BEGIN_RES ASN A 133
REMARK  2 active torsions:
REMARK  status: ('A' for Active; 'I' for Inactive)
REMARK    7  A    between atoms: CA   and  CB  
REMARK    8  A    between atoms: CB   and  CG  
ROOT
ATOM     16  CA  ASN A 133      31.225  30.257  11.749  1.00 18.15     0.196 C 
ENDROOT
BRANCH  16  17
ATOM     17  CB  ASN A 133      30.092  31.240  11.460  1.00 18.27     0.126 C 
BRANCH  17  18
ATOM     18  CG  ASN A 133      28.747  30.587  11.385  1.00 18.94     0.276 C 
ATOM     19  OD1 ASN A 133      28.553  29.607  10.663  1.00 18.09    -0.269 OA
ATOM     20  ND2 ASN A 133      27.792  31.131  12.138  1.00 18.93    -0.107 N 
ENDBRANCH  17  18
ENDBRANCH  16  17
END_RES ASN A 133
