REMARK VINA RESULT:    -3.563      4.869      7.428
REMARK INTER + INTRA:          -8.244
REMARK INTER:                  -4.208
REMARK INTRA:                  -4.035
REMARK UNBOUND:                -3.327
REMARK SMILES Cc1cn(CCCCCC(=O)O)nn1
REMARK SMILES IDX 7 1 6 2 5 3 4 4 1 5 2 6 3 7 14 8 13 9 8 10 9 11 10 12 11 13
REMARK SMILES IDX 12 14
REMARK H PARENT 12 15
REMARK Flexibility Score: inf
ROOT
ATOM      1  C   UNL     1      35.550  41.254   6.951  1.00  0.00     0.002 C 
ENDROOT
BRANCH   1   2
ATOM      2  C   UNL     1      35.001  39.873   7.244  1.00  0.00     0.024 C 
BRANCH   2   3
ATOM      3  C   UNL     1      34.100  39.503   6.067  1.00  0.00     0.146 C 
BRANCH   3   4
ATOM      4  N   UNL     1      34.909  38.918   4.989  1.00  0.00    -0.252 N 
ATOM      5  C   UNL     1      36.008  38.696   1.494  1.00  0.00     0.070 C 
ATOM      6  C   UNL     1      35.750  38.565   2.965  1.00  0.00     0.080 A 
ATOM      7  C   UNL     1      34.863  39.328   3.706  1.00  0.00     0.134 A 
ATOM      8  N   UNL     1      36.302  37.717   3.838  1.00  0.00    -0.136 NA
ATOM      9  N   UNL     1      35.784  37.945   5.046  1.00  0.00    -0.067 NA
ENDBRANCH   3   4
ENDBRANCH   2   3
ENDBRANCH   1   2
BRANCH   1  10
ATOM     10  C   UNL     1      36.999  41.369   7.394  1.00  0.00     0.012 C 
BRANCH  10  11
ATOM     11  C   UNL     1      37.613  39.999   7.297  1.00  0.00     0.122 C 
BRANCH  11  12
ATOM     12  C   UNL     1      38.512  39.881   6.127  1.00  0.00     0.303 C 
ATOM     13  O   UNL     1      39.148  40.898   5.755  1.00  0.00    -0.252 OA
BRANCH  12  14
ATOM     14  O   UNL     1      38.682  38.701   5.427  1.00  0.00    -0.481 OA
ATOM     15  H   UNL     1      38.332  38.563   4.486  1.00  0.00     0.296 HD
ENDBRANCH  12  14
ENDBRANCH  11  12
ENDBRANCH  10  11
ENDBRANCH   1  10
TORSDOF 7
BEGIN_RES LYS A 135
REMARK  4 active torsions:
REMARK  status: ('A' for Active; 'I' for Inactive)
REMARK    1  A    between atoms: CA   and  CB  
REMARK    2  A    between atoms: CB   and  CG  
REMARK    3  A    between atoms: CG   and  CD  
REMARK    4  A    between atoms: CD   and  CE  
ROOT
ATOM      1  CA  LYS A 135      33.193  34.663   9.290  1.00 25.02     0.186 C 
ENDROOT
BRANCH   1   2
ATOM      2  CB  LYS A 135      32.060  35.360  10.034  1.00 26.63     0.034 C 
BRANCH   2   3
ATOM      3  CG  LYS A 135      30.852  35.631   9.175  1.00 29.45     0.005 C 
BRANCH   3   4
ATOM      4  CD  LYS A 135      30.292  34.334   8.612  1.00 32.00     0.041 C 
BRANCH   4   5
ATOM      5  CE  LYS A 135      28.785  34.422   8.468  1.00 34.25     0.338 C 
ATOM      6  NZ  LYS A 135      28.097  33.735   9.597  1.00 35.99     0.618 N 
ENDBRANCH   4   5
ENDBRANCH   3   4
ENDBRANCH   2   3
ENDBRANCH   1   2
END_RES LYS A 135
BEGIN_RES TYR A 136
REMARK  2 active torsions:
REMARK  status: ('A' for Active; 'I' for Inactive)
REMARK    5  A    between atoms: CA   and  CB  
REMARK    6  A    between atoms: CB   and  CG  
ROOT
ATOM      7  CA  TYR A 136      36.583  36.399   8.994  1.00 26.14     0.191 C 
ENDROOT
BRANCH   7   8
ATOM      8  CB  TYR A 136      37.367  36.835  10.240  1.00 28.16     0.060 C 
BRANCH   8   9
ATOM      9  CG  TYR A 136      37.204  38.304  10.543  1.00 31.88    -0.020 A 
ATOM     10  CD2 TYR A 136      38.313  39.125  10.761  1.00 32.67    -0.002 A 
ATOM     11  CE2 TYR A 136      38.151  40.488  11.044  1.00 33.89     0.027 A 
ATOM     12  CZ  TYR A 136      36.867  41.035  11.109  1.00 34.34     0.131 A 
ATOM     13  OH  TYR A 136      36.683  42.384  11.381  1.00 35.14    -0.190 OA
ATOM     14  CE1 TYR A 136      35.755  40.234  10.897  1.00 35.01     0.027 A 
ATOM     15  CD1 TYR A 136      35.928  38.877  10.622  1.00 33.57    -0.002 A 
ENDBRANCH   8   9
ENDBRANCH   7   8
END_RES TYR A 136
BEGIN_RES ASN A 133
REMARK  2 active torsions:
REMARK  status: ('A' for Active; 'I' for Inactive)
REMARK    7  A    between atoms: CA   and  CB  
REMARK    8  A    between atoms: CB   and  CG  
ROOT
ATOM     16  CA  ASN A 133      31.225  30.257  11.749  1.00 18.15     0.196 C 
ENDROOT
BRANCH  16  17
ATOM     17  CB  ASN A 133      30.092  31.240  11.460  1.00 18.27     0.126 C 
BRANCH  17  18
ATOM     18  CG  ASN A 133      28.750  30.584  11.364  1.00 18.94     0.276 C 
ATOM     19  OD1 ASN A 133      28.566  29.610  10.631  1.00 18.09    -0.269 OA
ATOM     20  ND2 ASN A 133      27.785  31.119  12.111  1.00 18.93    -0.107 N 
ENDBRANCH  17  18
ENDBRANCH  16  17
END_RES ASN A 133
