REMARK VINA RESULT:    -4.561      4.575      7.971
REMARK INTER + INTRA:          -9.573
REMARK INTER:                  -7.478
REMARK INTRA:                  -2.095
REMARK UNBOUND:                -3.546
REMARK SMILES Cc1cn(CC(O)CCc2ccccc2)nn1
REMARK SMILES IDX 8 1 6 2 5 3 4 4 1 5 2 6 3 7 17 8 16 9 7 10 9 12 10 13 11 14
REMARK SMILES IDX 15 15 12 16 14 17 13 18
REMARK H PARENT 7 11
REMARK Flexibility Score: inf
ROOT
ATOM      1  C   UNL     1      27.620  37.288   6.255  1.00  0.00     0.038 C 
ENDROOT
BRANCH   1   2
ATOM      2  C   UNL     1      28.627  38.392   6.478  1.00  0.00     0.136 C 
BRANCH   2   3
ATOM      3  C   UNL     1      28.795  38.659   7.959  1.00  0.00     0.177 C 
BRANCH   3   4
ATOM      4  N   UNL     1      30.134  39.122   8.240  1.00  0.00    -0.250 N 
ATOM      5  C   UNL     1      33.258  39.115  10.151  1.00  0.00     0.070 C 
ATOM      6  C   UNL     1      32.095  39.304   9.225  1.00  0.00     0.080 A 
ATOM      7  C   UNL     1      30.895  38.647   9.254  1.00  0.00     0.134 A 
ATOM      8  N   UNL     1      32.043  40.162   8.201  1.00  0.00    -0.136 NA
ATOM      9  N   UNL     1      30.861  40.031   7.631  1.00  0.00    -0.067 NA
ENDBRANCH   3   4
ENDBRANCH   2   3
BRANCH   2  10
ATOM     10  O   UNL     1      29.809  38.080   5.855  1.00  0.00    -0.391 OA
ATOM     11  H   UNL     1      29.957  38.552   4.998  1.00  0.00     0.211 HD
ENDBRANCH   2  10
ENDBRANCH   1   2
BRANCH   1  12
ATOM     12  C   UNL     1      28.256  35.949   6.017  1.00  0.00     0.038 C 
BRANCH  12  13
ATOM     13  C   UNL     1      28.271  35.218   7.304  1.00  0.00    -0.048 A 
ATOM     14  C   UNL     1      29.490  34.866   7.862  1.00  0.00     0.004 A 
ATOM     15  C   UNL     1      27.128  34.863   7.984  1.00  0.00     0.004 A 
ATOM     16  C   UNL     1      29.531  34.184   9.061  1.00  0.00     0.000 A 
ATOM     17  C   UNL     1      27.179  34.180   9.184  1.00  0.00     0.000 A 
ATOM     18  C   UNL     1      28.388  33.826   9.747  1.00  0.00     0.000 A 
ENDBRANCH  12  13
ENDBRANCH   1  12
TORSDOF 6
BEGIN_RES LYS A 135
REMARK  4 active torsions:
REMARK  status: ('A' for Active; 'I' for Inactive)
REMARK    1  A    between atoms: CA   and  CB  
REMARK    2  A    between atoms: CB   and  CG  
REMARK    3  A    between atoms: CG   and  CD  
REMARK    4  A    between atoms: CD   and  CE  
ROOT
ATOM      1  CA  LYS A 135      33.193  34.663   9.290  1.00 25.02     0.186 C 
ENDROOT
BRANCH   1   2
ATOM      2  CB  LYS A 135      32.060  35.360  10.034  1.00 26.63     0.034 C 
BRANCH   2   3
ATOM      3  CG  LYS A 135      32.397  35.701  11.463  1.00 29.45     0.005 C 
BRANCH   3   4
ATOM      4  CD  LYS A 135      31.133  35.986  12.259  1.00 32.00     0.041 C 
BRANCH   4   5
ATOM      5  CE  LYS A 135      30.919  34.920  13.317  1.00 34.25     0.338 C 
ATOM      6  NZ  LYS A 135      29.580  34.285  13.176  1.00 35.99     0.618 N 
ENDBRANCH   4   5
ENDBRANCH   3   4
ENDBRANCH   2   3
ENDBRANCH   1   2
END_RES LYS A 135
BEGIN_RES TYR A 136
REMARK  2 active torsions:
REMARK  status: ('A' for Active; 'I' for Inactive)
REMARK    5  A    between atoms: CA   and  CB  
REMARK    6  A    between atoms: CB   and  CG  
ROOT
ATOM      7  CA  TYR A 136      36.583  36.399   8.994  1.00 26.14     0.191 C 
ENDROOT
BRANCH   7   8
ATOM      8  CB  TYR A 136      37.367  36.835  10.240  1.00 28.16     0.060 C 
BRANCH   8   9
ATOM      9  CG  TYR A 136      37.056  38.252  10.655  1.00 31.88    -0.020 A 
ATOM     10  CD2 TYR A 136      37.298  39.327   9.796  1.00 32.67    -0.002 A 
ATOM     11  CE2 TYR A 136      37.007  40.639  10.192  1.00 33.89     0.027 A 
ATOM     12  CZ  TYR A 136      36.469  40.879  11.459  1.00 34.34     0.131 A 
ATOM     13  OH  TYR A 136      36.167  42.170  11.869  1.00 35.14    -0.190 OA
ATOM     14  CE1 TYR A 136      36.223  39.823  12.325  1.00 35.01     0.027 A 
ATOM     15  CD1 TYR A 136      36.523  38.521  11.922  1.00 33.57    -0.002 A 
ENDBRANCH   8   9
ENDBRANCH   7   8
END_RES TYR A 136
BEGIN_RES ASN A 133
REMARK  2 active torsions:
REMARK  status: ('A' for Active; 'I' for Inactive)
REMARK    7  A    between atoms: CA   and  CB  
REMARK    8  A    between atoms: CB   and  CG  
ROOT
ATOM     16  CA  ASN A 133      31.225  30.257  11.749  1.00 18.15     0.196 C 
ENDROOT
BRANCH  16  17
ATOM     17  CB  ASN A 133      30.092  31.240  11.460  1.00 18.27     0.126 C 
BRANCH  17  18
ATOM     18  CG  ASN A 133      28.748  30.585  11.373  1.00 18.94     0.276 C 
ATOM     19  OD1 ASN A 133      28.561  29.606  10.648  1.00 18.09    -0.269 OA
ATOM     20  ND2 ASN A 133      27.787  31.127  12.120  1.00 18.93    -0.107 N 
ENDBRANCH  17  18
ENDBRANCH  16  17
END_RES ASN A 133
