REMARK VINA RESULT:    -4.359      1.671      4.047
REMARK INTER + INTRA:          -8.381
REMARK INTER:                  -5.253
REMARK INTRA:                  -3.129
REMARK UNBOUND:                -3.259
REMARK SMILES Cc1cn(Cc2cccc(C#N)c2)nn1
REMARK SMILES IDX 6 1 7 2 8 3 9 4 10 5 13 6 5 7 4 8 1 9 2 10 3 11 15 12 14 13
REMARK SMILES IDX 11 14 12 15
REMARK H PARENT
REMARK Flexibility Score: inf
ROOT
ATOM      1  C   UNL     1      32.368  35.117  14.317  1.00  0.00    -0.025 A 
ATOM      2  C   UNL     1      31.490  35.286  13.274  1.00  0.00     0.006 A 
ATOM      3  C   UNL     1      30.412  34.451  13.053  1.00  0.00     0.002 A 
ATOM      4  C   UNL     1      30.218  33.401  13.927  1.00  0.00     0.019 A 
ATOM      5  C   UNL     1      31.073  33.191  14.990  1.00  0.00     0.052 A 
ATOM      6  C   UNL     1      32.150  34.059  15.177  1.00  0.00     0.025 A 
ENDROOT
BRANCH   1   7
ATOM      7  C   UNL     1      33.519  36.007  14.556  1.00  0.00     0.181 C 
BRANCH   7   8
ATOM      8  N   UNL     1      34.778  35.409  14.242  1.00  0.00    -0.248 N 
ATOM      9  C   UNL     1      36.946  33.401  12.109  1.00  0.00     0.070 C 
ATOM     10  C   UNL     1      36.297  34.254  13.157  1.00  0.00     0.080 A 
ATOM     11  C   UNL     1      34.996  34.665  13.144  1.00  0.00     0.134 A 
ATOM     12  N   UNL     1      36.858  34.758  14.271  1.00  0.00    -0.136 NA
ATOM     13  N   UNL     1      35.931  35.447  14.907  1.00  0.00    -0.067 NA
ENDBRANCH   7   8
ENDBRANCH   1   7
BRANCH   5  14
ATOM     14  C   UNL     1      30.812  32.081  15.859  1.00  0.00     0.099 C 
ATOM     15  N   UNL     1      30.611  31.176  16.546  1.00  0.00    -0.192 NA
ENDBRANCH   5  14
TORSDOF 3
BEGIN_RES LYS A 135
REMARK  4 active torsions:
REMARK  status: ('A' for Active; 'I' for Inactive)
REMARK    1  A    between atoms: CA   and  CB  
REMARK    2  A    between atoms: CB   and  CG  
REMARK    3  A    between atoms: CG   and  CD  
REMARK    4  A    between atoms: CD   and  CE  
ROOT
ATOM      1  CA  LYS A 135      33.193  34.663   9.290  1.00 25.02     0.186 C 
ENDROOT
BRANCH   1   2
ATOM      2  CB  LYS A 135      32.060  35.360  10.034  1.00 26.63     0.034 C 
BRANCH   2   3
ATOM      3  CG  LYS A 135      30.789  35.469   9.231  1.00 29.45     0.005 C 
BRANCH   3   4
ATOM      4  CD  LYS A 135      30.081  34.125   9.161  1.00 32.00     0.041 C 
BRANCH   4   5
ATOM      5  CE  LYS A 135      28.649  34.301   8.695  1.00 34.25     0.338 C 
ATOM      6  NZ  LYS A 135      27.692  33.684   9.656  1.00 35.99     0.618 N 
ENDBRANCH   4   5
ENDBRANCH   3   4
ENDBRANCH   2   3
ENDBRANCH   1   2
END_RES LYS A 135
BEGIN_RES TYR A 136
REMARK  2 active torsions:
REMARK  status: ('A' for Active; 'I' for Inactive)
REMARK    5  A    between atoms: CA   and  CB  
REMARK    6  A    between atoms: CB   and  CG  
ROOT
ATOM      7  CA  TYR A 136      36.583  36.399   8.994  1.00 26.14     0.191 C 
ENDROOT
BRANCH   7   8
ATOM      8  CB  TYR A 136      37.367  36.835  10.240  1.00 28.16     0.060 C 
BRANCH   8   9
ATOM      9  CG  TYR A 136      36.779  38.060  10.896  1.00 31.88    -0.020 A 
ATOM     10  CD2 TYR A 136      36.322  38.025  12.215  1.00 32.67    -0.002 A 
ATOM     11  CE2 TYR A 136      35.776  39.168  12.815  1.00 33.89     0.027 A 
ATOM     12  CZ  TYR A 136      35.686  40.357  12.088  1.00 34.34     0.131 A 
ATOM     13  OH  TYR A 136      35.156  41.503  12.663  1.00 35.14    -0.190 OA
ATOM     14  CE1 TYR A 136      36.135  40.410  10.776  1.00 35.01     0.027 A 
ATOM     15  CD1 TYR A 136      36.671  39.263  10.187  1.00 33.57    -0.002 A 
ENDBRANCH   8   9
ENDBRANCH   7   8
END_RES TYR A 136
BEGIN_RES ASN A 133
REMARK  2 active torsions:
REMARK  status: ('A' for Active; 'I' for Inactive)
REMARK    7  A    between atoms: CA   and  CB  
REMARK    8  A    between atoms: CB   and  CG  
ROOT
ATOM     16  CA  ASN A 133      31.225  30.257  11.749  1.00 18.15     0.196 C 
ENDROOT
BRANCH  16  17
ATOM     17  CB  ASN A 133      30.092  31.240  11.460  1.00 18.27     0.126 C 
BRANCH  17  18
ATOM     18  CG  ASN A 133      28.749  30.584  11.367  1.00 18.94     0.276 C 
ATOM     19  OD1 ASN A 133      28.563  29.610  10.636  1.00 18.09    -0.269 OA
ATOM     20  ND2 ASN A 133      27.786  31.120  12.117  1.00 18.93    -0.107 N 
ENDBRANCH  17  18
ENDBRANCH  16  17
END_RES ASN A 133
