REMARK VINA RESULT:    -3.841      3.330      5.711
REMARK INTER + INTRA:          -7.846
REMARK INTER:                  -4.309
REMARK INTRA:                  -3.537
REMARK UNBOUND:                -3.332
REMARK SMILES Cc1cn(CC(=O)Nc2ncccn2)nn1
REMARK SMILES IDX 6 1 7 2 8 3 5 5 4 6 1 7 2 8 3 9 16 10 15 11 9 12 10 13 14 14
REMARK SMILES IDX 11 15 13 16 12 17
REMARK H PARENT 8 4
REMARK Flexibility Score: inf
ROOT
ATOM      1  C   UNL     1      38.037  34.335  15.575  1.00  0.00     0.248 C 
ATOM      2  O   UNL     1      37.517  35.238  16.278  1.00  0.00    -0.272 OA
ATOM      3  N   UNL     1      38.912  33.419  16.249  1.00  0.00    -0.293 N 
ATOM      4  H   UNL     1      39.353  32.665  15.685  1.00  0.00     0.173 HD
ENDROOT
BRANCH   1   5
ATOM      5  C   UNL     1      37.811  34.163  14.142  1.00  0.00     0.246 C 
BRANCH   5   6
ATOM      6  N   UNL     1      38.911  34.693  13.359  1.00  0.00    -0.243 N 
ATOM      7  C   UNL     1      40.463  36.463  10.534  1.00  0.00     0.070 C 
ATOM      8  C   UNL     1      40.092  35.707  11.770  1.00  0.00     0.080 A 
ATOM      9  C   UNL     1      38.821  35.372  12.207  1.00  0.00     0.134 A 
ATOM     10  N   UNL     1      40.924  35.201  12.706  1.00  0.00    -0.136 NA
ATOM     11  N   UNL     1      40.204  34.610  13.627  1.00  0.00    -0.067 NA
ENDBRANCH   5   6
ENDBRANCH   1   5
BRANCH   3  12
ATOM     12  C   UNL     1      39.185  33.513  17.630  1.00  0.00     0.229 A 
ATOM     13  N   UNL     1      40.104  34.360  18.115  1.00  0.00    -0.221 NA
ATOM     14  N   UNL     1      38.511  32.737  18.486  1.00  0.00    -0.221 NA
ATOM     15  C   UNL     1      40.379  34.465  19.430  1.00  0.00     0.117 A 
ATOM     16  C   UNL     1      38.718  32.773  19.819  1.00  0.00     0.117 A 
ATOM     17  C   UNL     1      39.661  33.644  20.298  1.00  0.00     0.040 A 
ENDBRANCH   3  12
TORSDOF 3
BEGIN_RES LYS A 135
REMARK  4 active torsions:
REMARK  status: ('A' for Active; 'I' for Inactive)
REMARK    1  A    between atoms: CA   and  CB  
REMARK    2  A    between atoms: CB   and  CG  
REMARK    3  A    between atoms: CG   and  CD  
REMARK    4  A    between atoms: CD   and  CE  
ROOT
ATOM      1  CA  LYS A 135      33.193  34.663   9.290  1.00 25.02     0.186 C 
ENDROOT
BRANCH   1   2
ATOM      2  CB  LYS A 135      32.060  35.360  10.034  1.00 26.63     0.034 C 
BRANCH   2   3
ATOM      3  CG  LYS A 135      30.703  34.768   9.756  1.00 29.45     0.005 C 
BRANCH   3   4
ATOM      4  CD  LYS A 135      30.453  34.677   8.258  1.00 32.00     0.041 C 
BRANCH   4   5
ATOM      5  CE  LYS A 135      29.015  35.033   7.935  1.00 34.25     0.338 C 
ATOM      6  NZ  LYS A 135      28.890  35.551   6.545  1.00 35.99     0.618 N 
ENDBRANCH   4   5
ENDBRANCH   3   4
ENDBRANCH   2   3
ENDBRANCH   1   2
END_RES LYS A 135
BEGIN_RES TYR A 136
REMARK  2 active torsions:
REMARK  status: ('A' for Active; 'I' for Inactive)
REMARK    5  A    between atoms: CA   and  CB  
REMARK    6  A    between atoms: CB   and  CG  
ROOT
ATOM      7  CA  TYR A 136      36.583  36.399   8.994  1.00 26.14     0.191 C 
ENDROOT
BRANCH   7   8
ATOM      8  CB  TYR A 136      37.367  36.835  10.240  1.00 28.16     0.060 C 
BRANCH   8   9
ATOM      9  CG  TYR A 136      37.197  38.302  10.548  1.00 31.88    -0.020 A 
ATOM     10  CD2 TYR A 136      37.720  38.861  11.717  1.00 32.67    -0.002 A 
ATOM     11  CE2 TYR A 136      37.556  40.225  11.995  1.00 33.89     0.027 A 
ATOM     12  CZ  TYR A 136      36.860  41.037  11.095  1.00 34.34     0.131 A 
ATOM     13  OH  TYR A 136      36.691  42.391  11.347  1.00 35.14    -0.190 OA
ATOM     14  CE1 TYR A 136      36.333  40.498   9.931  1.00 35.01     0.027 A 
ATOM     15  CD1 TYR A 136      36.498  39.137   9.668  1.00 33.57    -0.002 A 
ENDBRANCH   8   9
ENDBRANCH   7   8
END_RES TYR A 136
BEGIN_RES ASN A 133
REMARK  2 active torsions:
REMARK  status: ('A' for Active; 'I' for Inactive)
REMARK    7  A    between atoms: CA   and  CB  
REMARK    8  A    between atoms: CB   and  CG  
ROOT
ATOM     16  CA  ASN A 133      31.225  30.257  11.749  1.00 18.15     0.196 C 
ENDROOT
BRANCH  16  17
ATOM     17  CB  ASN A 133      30.092  31.240  11.460  1.00 18.27     0.126 C 
BRANCH  17  18
ATOM     18  CG  ASN A 133      28.751  30.583  11.357  1.00 18.94     0.276 C 
ATOM     19  OD1 ASN A 133      28.574  29.603  10.630  1.00 18.09    -0.269 OA
ATOM     20  ND2 ASN A 133      27.779  31.123  12.091  1.00 18.93    -0.107 N 
ENDBRANCH  17  18
ENDBRANCH  16  17
END_RES ASN A 133
