REMARK VINA RESULT:    -3.557      4.571      7.849
REMARK INTER + INTRA:          -7.075
REMARK INTER:                  -5.055
REMARK INTRA:                  -2.021
REMARK UNBOUND:                -3.103
REMARK SMILES Cc1cn(-c2ncccc2C#N)nn1
REMARK SMILES IDX 5 1 6 2 7 3 8 4 9 5 10 6 4 7 1 8 2 9 3 10 14 11 13 12 11 13
REMARK SMILES IDX 12 14
REMARK H PARENT
REMARK Flexibility Score: inf
ROOT
ATOM      1  C   UNL     1      26.339  36.241   8.077  1.00  0.00     0.173 A 
ATOM      2  N   UNL     1      26.238  37.183   7.122  1.00  0.00    -0.236 NA
ATOM      3  C   UNL     1      27.071  37.268   6.075  1.00  0.00     0.113 A 
ATOM      4  C   UNL     1      28.108  36.369   5.910  1.00  0.00     0.022 A 
ATOM      5  C   UNL     1      28.232  35.390   6.881  1.00  0.00     0.025 A 
ATOM      6  C   UNL     1      27.354  35.325   7.957  1.00  0.00     0.097 A 
ENDROOT
BRANCH   1   7
ATOM      7  N   UNL     1      25.422  36.198   9.173  1.00  0.00    -0.201 N 
ATOM      8  C   UNL     1      22.369  35.299  11.030  1.00  0.00     0.070 C 
ATOM      9  C   UNL     1      23.667  35.786  10.492  1.00  0.00     0.080 A 
ATOM     10  C   UNL     1      24.230  35.573   9.250  1.00  0.00     0.142 A 
ATOM     11  N   UNL     1      24.564  36.557  11.145  1.00  0.00    -0.135 NA
ATOM     12  N   UNL     1      25.597  36.788  10.344  1.00  0.00    -0.061 NA
ENDBRANCH   1   7
BRANCH   6  13
ATOM     13  C   UNL     1      27.477  34.311   8.967  1.00  0.00     0.103 C 
ATOM     14  N   UNL     1      27.557  33.507   9.771  1.00  0.00    -0.192 NA
ENDBRANCH   6  13
TORSDOF 2
BEGIN_RES LYS A 135
REMARK  4 active torsions:
REMARK  status: ('A' for Active; 'I' for Inactive)
REMARK    1  A    between atoms: CA   and  CB  
REMARK    2  A    between atoms: CB   and  CG  
REMARK    3  A    between atoms: CG   and  CD  
REMARK    4  A    between atoms: CD   and  CE  
ROOT
ATOM      1  CA  LYS A 135      33.193  34.663   9.290  1.00 25.02     0.186 C 
ENDROOT
BRANCH   1   2
ATOM      2  CB  LYS A 135      32.060  35.360  10.034  1.00 26.63     0.034 C 
BRANCH   2   3
ATOM      3  CG  LYS A 135      30.860  35.650   9.170  1.00 29.45     0.005 C 
BRANCH   3   4
ATOM      4  CD  LYS A 135      30.653  37.150   9.024  1.00 32.00     0.041 C 
BRANCH   4   5
ATOM      5  CE  LYS A 135      29.478  37.609   9.864  1.00 34.25     0.338 C 
ATOM      6  NZ  LYS A 135      28.726  38.700   9.184  1.00 35.99     0.618 N 
ENDBRANCH   4   5
ENDBRANCH   3   4
ENDBRANCH   2   3
ENDBRANCH   1   2
END_RES LYS A 135
BEGIN_RES TYR A 136
REMARK  2 active torsions:
REMARK  status: ('A' for Active; 'I' for Inactive)
REMARK    5  A    between atoms: CA   and  CB  
REMARK    6  A    between atoms: CB   and  CG  
ROOT
ATOM      7  CA  TYR A 136      36.583  36.399   8.994  1.00 26.14     0.191 C 
ENDROOT
BRANCH   7   8
ATOM      8  CB  TYR A 136      37.367  36.835  10.240  1.00 28.16     0.060 C 
BRANCH   8   9
ATOM      9  CG  TYR A 136      37.207  38.305  10.541  1.00 31.88    -0.020 A 
ATOM     10  CD2 TYR A 136      37.819  38.886  11.654  1.00 32.67    -0.002 A 
ATOM     11  CE2 TYR A 136      37.663  40.252  11.926  1.00 33.89     0.027 A 
ATOM     12  CZ  TYR A 136      36.887  41.044  11.076  1.00 34.34     0.131 A 
ATOM     13  OH  TYR A 136      36.725  42.400  11.322  1.00 35.14    -0.190 OA
ATOM     14  CE1 TYR A 136      36.271  40.483   9.967  1.00 35.01     0.027 A 
ATOM     15  CD1 TYR A 136      36.429  39.120   9.710  1.00 33.57    -0.002 A 
ENDBRANCH   8   9
ENDBRANCH   7   8
END_RES TYR A 136
BEGIN_RES ASN A 133
REMARK  2 active torsions:
REMARK  status: ('A' for Active; 'I' for Inactive)
REMARK    7  A    between atoms: CA   and  CB  
REMARK    8  A    between atoms: CB   and  CG  
ROOT
ATOM     16  CA  ASN A 133      31.225  30.257  11.749  1.00 18.15     0.196 C 
ENDROOT
BRANCH  16  17
ATOM     17  CB  ASN A 133      30.092  31.240  11.460  1.00 18.27     0.126 C 
BRANCH  17  18
ATOM     18  CG  ASN A 133      28.745  30.588  11.396  1.00 18.94     0.276 C 
ATOM     19  OD1 ASN A 133      28.515  29.676  10.600  1.00 18.09    -0.269 OA
ATOM     20  ND2 ASN A 133      27.830  31.057  12.243  1.00 18.93    -0.107 N 
ENDBRANCH  17  18
ENDBRANCH  16  17
END_RES ASN A 133
