REMARK VINA RESULT:    -3.010      7.820     12.423
REMARK INTER + INTRA:          -7.081
REMARK INTER:                  -4.011
REMARK INTRA:                  -3.070
REMARK UNBOUND:                -3.368
REMARK SMILES CCOC(=O)Cn1cc(C)nn1
REMARK SMILES IDX 4 1 5 2 6 3 7 4 10 5 9 6 8 7 11 8 12 9 3 10 2 11 1 12
REMARK H PARENT
REMARK Flexibility Score: inf
ROOT
ATOM      1  C   UNL     1      34.790  35.026  13.933  1.00  0.00     0.327 C 
ATOM      2  O   UNL     1      35.588  35.608  14.734  1.00  0.00    -0.250 OA
ENDROOT
BRANCH   1   3
ATOM      3  C   UNL     1      33.358  35.360  14.030  1.00  0.00     0.268 C 
BRANCH   3   4
ATOM      4  N   UNL     1      33.021  36.548  13.290  1.00  0.00    -0.241 N 
ATOM      5  C   UNL     1      32.506  38.711  10.405  1.00  0.00     0.070 C 
ATOM      6  C   UNL     1      32.654  38.019  11.711  1.00  0.00     0.080 A 
ATOM      7  C   UNL     1      33.027  36.731  11.976  1.00  0.00     0.134 A 
ATOM      8  N   UNL     1      32.417  38.616  12.911  1.00  0.00    -0.136 NA
ATOM      9  N   UNL     1      32.647  37.703  13.823  1.00  0.00    -0.067 NA
ENDBRANCH   3   4
ENDBRANCH   1   3
BRANCH   1  10
ATOM     10  O   UNL     1      35.363  34.141  13.055  1.00  0.00    -0.465 OA
BRANCH  10  11
ATOM     11  C   UNL     1      36.708  34.305  12.603  1.00  0.00     0.229 C 
ATOM     12  C   UNL     1      37.278  33.039  12.065  1.00  0.00     0.049 C 
ENDBRANCH  10  11
ENDBRANCH   1  10
TORSDOF 4
BEGIN_RES LYS A 135
REMARK  4 active torsions:
REMARK  status: ('A' for Active; 'I' for Inactive)
REMARK    1  A    between atoms: CA   and  CB  
REMARK    2  A    between atoms: CB   and  CG  
REMARK    3  A    between atoms: CG   and  CD  
REMARK    4  A    between atoms: CD   and  CE  
ROOT
ATOM      1  CA  LYS A 135      33.193  34.663   9.290  1.00 25.02     0.186 C 
ENDROOT
BRANCH   1   2
ATOM      2  CB  LYS A 135      32.060  35.360  10.034  1.00 26.63     0.034 C 
BRANCH   2   3
ATOM      3  CG  LYS A 135      30.796  35.488   9.224  1.00 29.45     0.005 C 
BRANCH   3   4
ATOM      4  CD  LYS A 135      30.081  34.149   9.129  1.00 32.00     0.041 C 
BRANCH   4   5
ATOM      5  CE  LYS A 135      28.684  34.330   8.568  1.00 34.25     0.338 C 
ATOM      6  NZ  LYS A 135      28.695  35.222   7.376  1.00 35.99     0.618 N 
ENDBRANCH   4   5
ENDBRANCH   3   4
ENDBRANCH   2   3
ENDBRANCH   1   2
END_RES LYS A 135
BEGIN_RES TYR A 136
REMARK  2 active torsions:
REMARK  status: ('A' for Active; 'I' for Inactive)
REMARK    5  A    between atoms: CA   and  CB  
REMARK    6  A    between atoms: CB   and  CG  
ROOT
ATOM      7  CA  TYR A 136      36.583  36.399   8.994  1.00 26.14     0.191 C 
ENDROOT
BRANCH   7   8
ATOM      8  CB  TYR A 136      37.367  36.835  10.240  1.00 28.16     0.060 C 
BRANCH   8   9
ATOM      9  CG  TYR A 136      36.752  38.032  10.923  1.00 31.88    -0.020 A 
ATOM     10  CD2 TYR A 136      36.550  38.051  12.305  1.00 32.67    -0.002 A 
ATOM     11  CE2 TYR A 136      35.976  39.167  12.929  1.00 33.89     0.027 A 
ATOM     12  CZ  TYR A 136      35.601  40.274  12.164  1.00 34.34     0.131 A 
ATOM     13  OH  TYR A 136      35.038  41.393  12.762  1.00 35.14    -0.190 OA
ATOM     14  CE1 TYR A 136      35.794  40.271  10.790  1.00 35.01     0.027 A 
ATOM     15  CD1 TYR A 136      36.360  39.152  10.179  1.00 33.57    -0.002 A 
ENDBRANCH   8   9
ENDBRANCH   7   8
END_RES TYR A 136
BEGIN_RES ASN A 133
REMARK  2 active torsions:
REMARK  status: ('A' for Active; 'I' for Inactive)
REMARK    7  A    between atoms: CA   and  CB  
REMARK    8  A    between atoms: CB   and  CG  
ROOT
ATOM     16  CA  ASN A 133      31.225  30.257  11.749  1.00 18.15     0.196 C 
ENDROOT
BRANCH  16  17
ATOM     17  CB  ASN A 133      30.092  31.240  11.460  1.00 18.27     0.126 C 
BRANCH  17  18
ATOM     18  CG  ASN A 133      28.751  30.582  11.353  1.00 18.94     0.276 C 
ATOM     19  OD1 ASN A 133      28.576  29.606  10.621  1.00 18.09    -0.269 OA
ATOM     20  ND2 ASN A 133      27.779  31.118  12.089  1.00 18.93    -0.107 N 
ENDBRANCH  17  18
ENDBRANCH  16  17
END_RES ASN A 133
