REMARK VINA RESULT:    -3.752      2.188      4.543
REMARK INTER + INTRA:          -7.669
REMARK INTER:                  -4.688
REMARK INTRA:                  -2.980
REMARK UNBOUND:                -3.259
REMARK SMILES Cc1cn(Cc2cccc(C#N)c2)nn1
REMARK SMILES IDX 6 1 7 2 8 3 9 4 10 5 13 6 5 7 4 8 1 9 2 10 3 11 15 12 14 13
REMARK SMILES IDX 11 14 12 15
REMARK H PARENT
REMARK Flexibility Score: inf
ROOT
ATOM      1  C   UNL     1      31.819  33.852  16.459  1.00  0.00    -0.025 A 
ATOM      2  C   UNL     1      31.610  33.004  15.399  1.00  0.00     0.006 A 
ATOM      3  C   UNL     1      30.893  31.828  15.505  1.00  0.00     0.002 A 
ATOM      4  C   UNL     1      30.369  31.499  16.738  1.00  0.00     0.019 A 
ATOM      5  C   UNL     1      30.553  32.320  17.832  1.00  0.00     0.052 A 
ATOM      6  C   UNL     1      31.283  33.500  17.681  1.00  0.00     0.025 A 
ENDROOT
BRANCH   1   7
ATOM      7  C   UNL     1      32.583  35.109  16.349  1.00  0.00     0.181 C 
BRANCH   7   8
ATOM      8  N   UNL     1      32.991  35.414  15.015  1.00  0.00    -0.248 N 
ATOM      9  C   UNL     1      32.636  37.228  11.873  1.00  0.00     0.070 C 
ATOM     10  C   UNL     1      33.015  36.355  13.030  1.00  0.00     0.080 A 
ATOM     11  C   UNL     1      32.368  36.312  14.231  1.00  0.00     0.134 A 
ATOM     12  N   UNL     1      34.031  35.476  13.100  1.00  0.00    -0.136 NA
ATOM     13  N   UNL     1      34.000  34.924  14.297  1.00  0.00    -0.067 NA
ENDBRANCH   7   8
ENDBRANCH   1   7
BRANCH   5  14
ATOM     14  C   UNL     1      29.980  31.918  19.084  1.00  0.00     0.099 C 
ATOM     15  N   UNL     1      29.505  31.585  20.082  1.00  0.00    -0.192 NA
ENDBRANCH   5  14
TORSDOF 3
BEGIN_RES LYS A 135
REMARK  4 active torsions:
REMARK  status: ('A' for Active; 'I' for Inactive)
REMARK    1  A    between atoms: CA   and  CB  
REMARK    2  A    between atoms: CB   and  CG  
REMARK    3  A    between atoms: CG   and  CD  
REMARK    4  A    between atoms: CD   and  CE  
ROOT
ATOM      1  CA  LYS A 135      33.193  34.663   9.290  1.00 25.02     0.186 C 
ENDROOT
BRANCH   1   2
ATOM      2  CB  LYS A 135      32.060  35.360  10.034  1.00 26.63     0.034 C 
BRANCH   2   3
ATOM      3  CG  LYS A 135      30.798  35.494   9.221  1.00 29.45     0.005 C 
BRANCH   3   4
ATOM      4  CD  LYS A 135      30.126  34.141   9.047  1.00 32.00     0.041 C 
BRANCH   4   5
ATOM      5  CE  LYS A 135      28.670  34.315   8.662  1.00 34.25     0.338 C 
ATOM      6  NZ  LYS A 135      28.533  35.183   7.459  1.00 35.99     0.618 N 
ENDBRANCH   4   5
ENDBRANCH   3   4
ENDBRANCH   2   3
ENDBRANCH   1   2
END_RES LYS A 135
BEGIN_RES TYR A 136
REMARK  2 active torsions:
REMARK  status: ('A' for Active; 'I' for Inactive)
REMARK    5  A    between atoms: CA   and  CB  
REMARK    6  A    between atoms: CB   and  CG  
ROOT
ATOM      7  CA  TYR A 136      36.583  36.399   8.994  1.00 26.14     0.191 C 
ENDROOT
BRANCH   7   8
ATOM      8  CB  TYR A 136      37.367  36.835  10.240  1.00 28.16     0.060 C 
BRANCH   8   9
ATOM      9  CG  TYR A 136      37.144  38.286  10.588  1.00 31.88    -0.020 A 
ATOM     10  CD2 TYR A 136      38.056  39.271  10.203  1.00 32.67    -0.002 A 
ATOM     11  CE2 TYR A 136      37.840  40.616  10.533  1.00 33.89     0.027 A 
ATOM     12  CZ  TYR A 136      36.700  40.979  11.254  1.00 34.34     0.131 A 
ATOM     13  OH  TYR A 136      36.462  42.306  11.585  1.00 35.14    -0.190 OA
ATOM     14  CE1 TYR A 136      35.784  40.014  11.645  1.00 35.01     0.027 A 
ATOM     15  CD1 TYR A 136      36.013  38.677  11.317  1.00 33.57    -0.002 A 
ENDBRANCH   8   9
ENDBRANCH   7   8
END_RES TYR A 136
BEGIN_RES ASN A 133
REMARK  2 active torsions:
REMARK  status: ('A' for Active; 'I' for Inactive)
REMARK    7  A    between atoms: CA   and  CB  
REMARK    8  A    between atoms: CB   and  CG  
ROOT
ATOM     16  CA  ASN A 133      31.225  30.257  11.749  1.00 18.15     0.196 C 
ENDROOT
BRANCH  16  17
ATOM     17  CB  ASN A 133      30.092  31.240  11.460  1.00 18.27     0.126 C 
BRANCH  17  18
ATOM     18  CG  ASN A 133      28.750  30.583  11.361  1.00 18.94     0.276 C 
ATOM     19  OD1 ASN A 133      28.568  29.610  10.627  1.00 18.09    -0.269 OA
ATOM     20  ND2 ASN A 133      27.784  31.117  12.108  1.00 18.93    -0.107 N 
ENDBRANCH  17  18
ENDBRANCH  16  17
END_RES ASN A 133
