REMARK VINA RESULT:    -3.580      7.317     12.487
REMARK INTER + INTRA:          -7.075
REMARK INTER:                  -3.727
REMARK INTRA:                  -3.348
REMARK UNBOUND:                -2.973
REMARK SMILES Cc1cn(CCO)nn1
REMARK SMILES IDX 5 1 4 2 1 3 2 4 3 5 9 6 8 7 6 8 7 9
REMARK H PARENT 7 10
REMARK Flexibility Score: inf
ROOT
ATOM      1  C   UNL     1      23.124  35.995  -0.912  1.00  0.00     0.174 C 
ENDROOT
BRANCH   1   2
ATOM      2  N   UNL     1      22.900  34.649  -0.424  1.00  0.00    -0.250 N 
ATOM      3  C   UNL     1      21.855  31.190  -1.009  1.00  0.00     0.070 C 
ATOM      4  C   UNL     1      22.325  32.508  -0.505  1.00  0.00     0.080 A 
ATOM      5  C   UNL     1      22.442  33.675  -1.231  1.00  0.00     0.134 A 
ATOM      6  N   UNL     1      22.732  32.851   0.733  1.00  0.00    -0.136 NA
ATOM      7  N   UNL     1      23.067  34.128   0.755  1.00  0.00    -0.067 NA
ENDBRANCH   1   2
BRANCH   1   8
ATOM      8  C   UNL     1      21.973  36.915  -0.581  1.00  0.00     0.179 C 
BRANCH   8   9
ATOM      9  O   UNL     1      21.811  37.006   0.814  1.00  0.00    -0.394 OA
ATOM     10  H   UNL     1      21.300  37.835   0.997  1.00  0.00     0.210 HD
ENDBRANCH   8   9
ENDBRANCH   1   8
TORSDOF 3
BEGIN_RES LYS A 135
REMARK  4 active torsions:
REMARK  status: ('A' for Active; 'I' for Inactive)
REMARK    1  A    between atoms: CA   and  CB  
REMARK    2  A    between atoms: CB   and  CG  
REMARK    3  A    between atoms: CG   and  CD  
REMARK    4  A    between atoms: CD   and  CE  
ROOT
ATOM      1  CA  LYS A 135      33.193  34.663   9.290  1.00 25.02     0.186 C 
ENDROOT
BRANCH   1   2
ATOM      2  CB  LYS A 135      32.060  35.360  10.034  1.00 26.63     0.034 C 
BRANCH   2   3
ATOM      3  CG  LYS A 135      30.703  34.764   9.761  1.00 29.45     0.005 C 
BRANCH   3   4
ATOM      4  CD  LYS A 135      30.481  34.599   8.265  1.00 32.00     0.041 C 
BRANCH   4   5
ATOM      5  CE  LYS A 135      29.028  34.852   7.911  1.00 34.25     0.338 C 
ATOM      6  NZ  LYS A 135      28.911  35.579   6.617  1.00 35.99     0.618 N 
ENDBRANCH   4   5
ENDBRANCH   3   4
ENDBRANCH   2   3
ENDBRANCH   1   2
END_RES LYS A 135
BEGIN_RES TYR A 136
REMARK  2 active torsions:
REMARK  status: ('A' for Active; 'I' for Inactive)
REMARK    5  A    between atoms: CA   and  CB  
REMARK    6  A    between atoms: CB   and  CG  
ROOT
ATOM      7  CA  TYR A 136      36.583  36.399   8.994  1.00 26.14     0.191 C 
ENDROOT
BRANCH   7   8
ATOM      8  CB  TYR A 136      37.367  36.835  10.240  1.00 28.16     0.060 C 
BRANCH   8   9
ATOM      9  CG  TYR A 136      37.206  38.305  10.542  1.00 31.88    -0.020 A 
ATOM     10  CD2 TYR A 136      37.761  38.872  11.692  1.00 32.67    -0.002 A 
ATOM     11  CE2 TYR A 136      37.604  40.238  11.964  1.00 33.89     0.027 A 
ATOM     12  CZ  TYR A 136      36.885  41.043  11.078  1.00 34.34     0.131 A 
ATOM     13  OH  TYR A 136      36.723  42.400  11.323  1.00 35.14    -0.190 OA
ATOM     14  CE1 TYR A 136      36.326  40.497   9.931  1.00 35.01     0.027 A 
ATOM     15  CD1 TYR A 136      36.484  39.134   9.674  1.00 33.57    -0.002 A 
ENDBRANCH   8   9
ENDBRANCH   7   8
END_RES TYR A 136
BEGIN_RES ASN A 133
REMARK  2 active torsions:
REMARK  status: ('A' for Active; 'I' for Inactive)
REMARK    7  A    between atoms: CA   and  CB  
REMARK    8  A    between atoms: CB   and  CG  
ROOT
ATOM     16  CA  ASN A 133      31.225  30.257  11.749  1.00 18.15     0.196 C 
ENDROOT
BRANCH  16  17
ATOM     17  CB  ASN A 133      30.092  31.240  11.460  1.00 18.27     0.126 C 
BRANCH  17  18
ATOM     18  CG  ASN A 133      28.751  30.583  11.357  1.00 18.94     0.276 C 
ATOM     19  OD1 ASN A 133      28.569  29.615  10.616  1.00 18.09    -0.269 OA
ATOM     20  ND2 ASN A 133      27.784  31.110  12.108  1.00 18.93    -0.107 N 
ENDBRANCH  17  18
ENDBRANCH  16  17
END_RES ASN A 133
