REMARK VINA RESULT:    -3.574      2.251      3.669
REMARK INTER + INTRA:          -7.302
REMARK INTER:                  -4.405
REMARK INTRA:                  -2.897
REMARK UNBOUND:                -3.310
REMARK SMILES Cc1cn(-c2cc(Cl)ccc2C(=O)N(C)C)nn1
REMARK SMILES IDX 5 1 6 2 7 3 8 4 9 5 10 6 11 7 4 8 1 9 2 10 3 11 18 12 17 13
REMARK SMILES IDX 12 14 13 15 14 16 15 17 16 18
REMARK H PARENT
REMARK Flexibility Score: inf
ROOT
ATOM      1  C   UNL     1      39.209  35.062  13.346  1.00  0.00     0.081 A 
ATOM      2  C   UNL     1      37.946  34.656  12.892  1.00  0.00     0.049 A 
ATOM      3  C   UNL     1      36.833  34.804  13.691  1.00  0.00     0.043 A 
ATOM      4  Cl  UNL     1      35.254  34.287  13.106  1.00  0.00    -0.084 Cl
ATOM      5  C   UNL     1      36.935  35.354  14.951  1.00  0.00     0.021 A 
ATOM      6  C   UNL     1      38.176  35.752  15.391  1.00  0.00     0.017 A 
ATOM      7  C   UNL     1      39.280  35.605  14.599  1.00  0.00     0.065 A 
ENDROOT
BRANCH   1   8
ATOM      8  N   UNL     1      40.349  34.905  12.512  1.00  0.00    -0.220 N 
ATOM      9  C   UNL     1      43.252  33.167  11.098  1.00  0.00     0.070 C 
ATOM     10  C   UNL     1      42.147  34.090  11.497  1.00  0.00     0.080 A 
ATOM     11  C   UNL     1      41.144  33.835  12.439  1.00  0.00     0.140 A 
ATOM     12  N   UNL     1      41.894  35.326  11.046  1.00  0.00    -0.135 NA
ATOM     13  N   UNL     1      40.824  35.777  11.668  1.00  0.00    -0.062 NA
ENDBRANCH   1   8
BRANCH   7  14
ATOM     14  C   UNL     1      40.588  36.040  15.099  1.00  0.00     0.255 C 
ATOM     15  O   UNL     1      41.352  35.249  15.701  1.00  0.00    -0.269 OA
ATOM     16  N   UNL     1      40.968  37.394  14.880  1.00  0.00    -0.345 N 
ATOM     17  C   UNL     1      42.274  37.850  15.373  1.00  0.00     0.146 C 
ATOM     18  C   UNL     1      40.122  38.326  14.198  1.00  0.00     0.146 C 
ENDBRANCH   7  14
TORSDOF 2
BEGIN_RES LYS A 135
REMARK  4 active torsions:
REMARK  status: ('A' for Active; 'I' for Inactive)
REMARK    1  A    between atoms: CA   and  CB  
REMARK    2  A    between atoms: CB   and  CG  
REMARK    3  A    between atoms: CG   and  CD  
REMARK    4  A    between atoms: CD   and  CE  
ROOT
ATOM      1  CA  LYS A 135      33.193  34.663   9.290  1.00 25.02     0.186 C 
ENDROOT
BRANCH   1   2
ATOM      2  CB  LYS A 135      32.060  35.360  10.034  1.00 26.63     0.034 C 
BRANCH   2   3
ATOM      3  CG  LYS A 135      30.709  34.736   9.795  1.00 29.45     0.005 C 
BRANCH   3   4
ATOM      4  CD  LYS A 135      30.469  34.529   8.308  1.00 32.00     0.041 C 
BRANCH   4   5
ATOM      5  CE  LYS A 135      29.027  34.836   7.953  1.00 34.25     0.338 C 
ATOM      6  NZ  LYS A 135      28.933  35.526   6.637  1.00 35.99     0.618 N 
ENDBRANCH   4   5
ENDBRANCH   3   4
ENDBRANCH   2   3
ENDBRANCH   1   2
END_RES LYS A 135
BEGIN_RES TYR A 136
REMARK  2 active torsions:
REMARK  status: ('A' for Active; 'I' for Inactive)
REMARK    5  A    between atoms: CA   and  CB  
REMARK    6  A    between atoms: CB   and  CG  
ROOT
ATOM      7  CA  TYR A 136      36.583  36.399   8.994  1.00 26.14     0.191 C 
ENDROOT
BRANCH   7   8
ATOM      8  CB  TYR A 136      37.367  36.835  10.240  1.00 28.16     0.060 C 
BRANCH   8   9
ATOM      9  CG  TYR A 136      36.754  38.034  10.921  1.00 31.88    -0.020 A 
ATOM     10  CD2 TYR A 136      36.849  38.206  12.304  1.00 32.67    -0.002 A 
ATOM     11  CE2 TYR A 136      36.274  39.322  12.928  1.00 33.89     0.027 A 
ATOM     12  CZ  TYR A 136      35.598  40.274  12.160  1.00 34.34     0.131 A 
ATOM     13  OH  TYR A 136      35.027  41.391  12.755  1.00 35.14    -0.190 OA
ATOM     14  CE1 TYR A 136      35.493  40.118  10.786  1.00 35.01     0.027 A 
ATOM     15  CD1 TYR A 136      36.064  38.999  10.177  1.00 33.57    -0.002 A 
ENDBRANCH   8   9
ENDBRANCH   7   8
END_RES TYR A 136
BEGIN_RES ASN A 133
REMARK  2 active torsions:
REMARK  status: ('A' for Active; 'I' for Inactive)
REMARK    7  A    between atoms: CA   and  CB  
REMARK    8  A    between atoms: CB   and  CG  
ROOT
ATOM     16  CA  ASN A 133      31.225  30.257  11.749  1.00 18.15     0.196 C 
ENDROOT
BRANCH  16  17
ATOM     17  CB  ASN A 133      30.092  31.240  11.460  1.00 18.27     0.126 C 
BRANCH  17  18
ATOM     18  CG  ASN A 133      28.749  30.584  11.368  1.00 18.94     0.276 C 
ATOM     19  OD1 ASN A 133      27.805  30.962  12.065  1.00 18.09    -0.269 OA
ATOM     20  ND2 ASN A 133      28.649  29.581  10.497  1.00 18.93    -0.107 N 
ENDBRANCH  17  18
ENDBRANCH  16  17
END_RES ASN A 133
