REMARK VINA RESULT:    -4.043      4.701      7.773
REMARK INTER + INTRA:          -7.147
REMARK INTER:                  -5.147
REMARK INTRA:                  -2.000
REMARK UNBOUND:                -2.867
REMARK SMILES Cc1cn(-c2ccc(Cl)cc2)nn1
REMARK SMILES IDX 5 1 6 2 7 3 8 4 9 5 10 6 11 7 4 8 1 9 2 10 3 11 13 12 12 13
REMARK H PARENT
REMARK Flexibility Score: inf
ROOT
ATOM      1  C   UNL     1      27.237  37.542   6.456  1.00  0.00     0.066 A 
ATOM      2  C   UNL     1      27.926  36.402   6.092  1.00  0.00     0.030 A 
ATOM      3  C   UNL     1      28.007  35.284   6.879  1.00  0.00     0.023 A 
ATOM      4  C   UNL     1      27.369  35.272   8.116  1.00  0.00     0.041 A 
ATOM      5  Cl  UNL     1      27.456  33.854   9.146  1.00  0.00    -0.084 Cl
ATOM      6  C   UNL     1      26.670  36.409   8.503  1.00  0.00     0.023 A 
ATOM      7  C   UNL     1      26.608  37.521   7.686  1.00  0.00     0.030 A 
ENDROOT
BRANCH   1   8
ATOM      8  N   UNL     1      27.168  38.692   5.620  1.00  0.00    -0.220 N 
ATOM      9  C   UNL     1      26.164  42.132   4.797  1.00  0.00     0.070 C 
ATOM     10  C   UNL     1      26.680  40.747   4.893  1.00  0.00     0.080 A 
ATOM     11  C   UNL     1      26.544  39.858   5.936  1.00  0.00     0.140 A 
ATOM     12  N   UNL     1      27.389  40.098   3.957  1.00  0.00    -0.135 NA
ATOM     13  N   UNL     1      27.664  38.886   4.410  1.00  0.00    -0.062 NA
ENDBRANCH   1   8
TORSDOF 1
BEGIN_RES LYS A 135
REMARK  4 active torsions:
REMARK  status: ('A' for Active; 'I' for Inactive)
REMARK    1  A    between atoms: CA   and  CB  
REMARK    2  A    between atoms: CB   and  CG  
REMARK    3  A    between atoms: CG   and  CD  
REMARK    4  A    between atoms: CD   and  CE  
ROOT
ATOM      1  CA  LYS A 135      33.193  34.663   9.290  1.00 25.02     0.186 C 
ENDROOT
BRANCH   1   2
ATOM      2  CB  LYS A 135      32.060  35.360  10.034  1.00 26.63     0.034 C 
BRANCH   2   3
ATOM      3  CG  LYS A 135      30.861  35.651   9.169  1.00 29.45     0.005 C 
BRANCH   3   4
ATOM      4  CD  LYS A 135      30.236  36.985   9.549  1.00 32.00     0.041 C 
BRANCH   4   5
ATOM      5  CE  LYS A 135      30.413  37.994   8.431  1.00 34.25     0.338 C 
ATOM      6  NZ  LYS A 135      29.608  39.221   8.684  1.00 35.99     0.618 N 
ENDBRANCH   4   5
ENDBRANCH   3   4
ENDBRANCH   2   3
ENDBRANCH   1   2
END_RES LYS A 135
BEGIN_RES TYR A 136
REMARK  2 active torsions:
REMARK  status: ('A' for Active; 'I' for Inactive)
REMARK    5  A    between atoms: CA   and  CB  
REMARK    6  A    between atoms: CB   and  CG  
ROOT
ATOM      7  CA  TYR A 136      36.583  36.399   8.994  1.00 26.14     0.191 C 
ENDROOT
BRANCH   7   8
ATOM      8  CB  TYR A 136      37.367  36.835  10.240  1.00 28.16     0.060 C 
BRANCH   8   9
ATOM      9  CG  TYR A 136      37.196  38.302  10.549  1.00 31.88    -0.020 A 
ATOM     10  CD2 TYR A 136      36.341  38.731  11.567  1.00 32.67    -0.002 A 
ATOM     11  CE2 TYR A 136      36.188  40.096  11.845  1.00 33.89     0.027 A 
ATOM     12  CZ  TYR A 136      36.896  41.041  11.098  1.00 34.34     0.131 A 
ATOM     13  OH  TYR A 136      36.765  42.397  11.361  1.00 35.14    -0.190 OA
ATOM     14  CE1 TYR A 136      37.748  40.632  10.083  1.00 35.01     0.027 A 
ATOM     15  CD1 TYR A 136      37.888  39.270   9.811  1.00 33.57    -0.002 A 
ENDBRANCH   8   9
ENDBRANCH   7   8
END_RES TYR A 136
BEGIN_RES ASN A 133
REMARK  2 active torsions:
REMARK  status: ('A' for Active; 'I' for Inactive)
REMARK    7  A    between atoms: CA   and  CB  
REMARK    8  A    between atoms: CB   and  CG  
ROOT
ATOM     16  CA  ASN A 133      31.225  30.257  11.749  1.00 18.15     0.196 C 
ENDROOT
BRANCH  16  17
ATOM     17  CB  ASN A 133      30.092  31.240  11.460  1.00 18.27     0.126 C 
BRANCH  17  18
ATOM     18  CG  ASN A 133      28.754  30.580  11.335  1.00 18.94     0.276 C 
ATOM     19  OD1 ASN A 133      28.591  29.599  10.606  1.00 18.09    -0.269 OA
ATOM     20  ND2 ASN A 133      27.769  31.119  12.052  1.00 18.93    -0.107 N 
ENDBRANCH  17  18
ENDBRANCH  16  17
END_RES ASN A 133
