REMARK VINA RESULT:    -5.572      4.310      6.065
REMARK INTER + INTRA:          -9.653
REMARK INTER:                  -6.509
REMARK INTRA:                  -3.144
REMARK UNBOUND:                -2.941
REMARK SMILES Cc1cn(-c2ccc(S(=O)(=O)c3ccc(N)cc3)cc2)nn1
REMARK SMILES IDX 9 1 10 2 11 3 8 4 5 5 6 6 20 7 7 8 19 9 4 10 1 11 2 12 3 13
REMARK SMILES IDX 22 14 21 15 12 16 13 17 18 18 14 19 17 20 15 21 16 22
REMARK H PARENT 16 23 16 24
REMARK Flexibility Score: inf
ROOT
ATOM      1  S   UNL     1      38.711  36.095  16.261  1.00  0.00     0.206 S 
ATOM      2  O   UNL     1      40.182  36.472  16.251  1.00  0.00    -0.219 OA
ATOM      3  O   UNL     1      37.944  37.377  16.426  1.00  0.00    -0.219 OA
ENDROOT
BRANCH   1   4
ATOM      4  C   UNL     1      38.387  34.961  17.541  1.00  0.00     0.072 A 
ATOM      5  C   UNL     1      37.800  33.205  19.649  1.00  0.00     0.066 A 
ATOM      6  C   UNL     1      37.242  34.487  19.583  1.00  0.00     0.030 A 
ATOM      7  C   UNL     1      38.645  32.827  18.652  1.00  0.00     0.030 A 
ATOM      8  C   UNL     1      37.532  35.349  18.545  1.00  0.00     0.023 A 
ATOM      9  C   UNL     1      38.940  33.699  17.600  1.00  0.00     0.023 A 
BRANCH   5  10
ATOM     10  N   UNL     1      37.454  32.371  20.752  1.00  0.00    -0.220 N 
ATOM     11  C   UNL     1      37.813  30.075  23.559  1.00  0.00     0.070 C 
ATOM     12  C   UNL     1      37.452  30.996  22.470  1.00  0.00     0.080 A 
ATOM     13  C   UNL     1      38.235  31.636  21.535  1.00  0.00     0.140 A 
ATOM     14  N   UNL     1      36.177  31.382  22.209  1.00  0.00    -0.135 NA
ATOM     15  N   UNL     1      36.221  32.194  21.186  1.00  0.00    -0.062 NA
ENDBRANCH   5  10
ENDBRANCH   1   4
BRANCH   1  16
ATOM     16  C   UNL     1      38.284  35.427  14.693  1.00  0.00     0.072 A 
ATOM     17  C   UNL     1      37.042  34.884  14.439  1.00  0.00     0.023 A 
ATOM     18  C   UNL     1      39.201  35.429  13.653  1.00  0.00     0.023 A 
ATOM     19  C   UNL     1      36.710  34.357  13.195  1.00  0.00     0.027 A 
ATOM     20  C   UNL     1      38.866  34.901  12.411  1.00  0.00     0.027 A 
ATOM     21  C   UNL     1      37.620  34.361  12.169  1.00  0.00     0.031 A 
BRANCH  21  22
ATOM     22  N   UNL     1      37.257  33.815  10.904  1.00  0.00    -0.399 N 
ATOM     23  H   UNL     1      37.804  33.058  10.472  1.00  0.00     0.156 HD
ATOM     24  H   UNL     1      36.422  34.188  10.403  1.00  0.00     0.156 HD
ENDBRANCH  21  22
ENDBRANCH   1  16
TORSDOF 4
BEGIN_RES LYS A 135
REMARK  4 active torsions:
REMARK  status: ('A' for Active; 'I' for Inactive)
REMARK    1  A    between atoms: CA   and  CB  
REMARK    2  A    between atoms: CB   and  CG  
REMARK    3  A    between atoms: CG   and  CD  
REMARK    4  A    between atoms: CD   and  CE  
ROOT
ATOM      1  CA  LYS A 135      33.193  34.663   9.290  1.00 25.02     0.186 C 
ENDROOT
BRANCH   1   2
ATOM      2  CB  LYS A 135      32.060  35.360  10.034  1.00 26.63     0.034 C 
BRANCH   2   3
ATOM      3  CG  LYS A 135      30.696  34.810   9.706  1.00 29.45     0.005 C 
BRANCH   3   4
ATOM      4  CD  LYS A 135      30.591  34.483   8.224  1.00 32.00     0.041 C 
BRANCH   4   5
ATOM      5  CE  LYS A 135      29.317  35.062   7.640  1.00 34.25     0.338 C 
ATOM      6  NZ  LYS A 135      28.116  34.543   8.352  1.00 35.99     0.618 N 
ENDBRANCH   4   5
ENDBRANCH   3   4
ENDBRANCH   2   3
ENDBRANCH   1   2
END_RES LYS A 135
BEGIN_RES TYR A 136
REMARK  2 active torsions:
REMARK  status: ('A' for Active; 'I' for Inactive)
REMARK    5  A    between atoms: CA   and  CB  
REMARK    6  A    between atoms: CB   and  CG  
ROOT
ATOM      7  CA  TYR A 136      36.583  36.399   8.994  1.00 26.14     0.191 C 
ENDROOT
BRANCH   7   8
ATOM      8  CB  TYR A 136      37.367  36.835  10.240  1.00 28.16     0.060 C 
BRANCH   8   9
ATOM      9  CG  TYR A 136      36.708  37.980  10.969  1.00 31.88    -0.020 A 
ATOM     10  CD2 TYR A 136      36.702  38.041  12.364  1.00 32.67    -0.002 A 
ATOM     11  CE2 TYR A 136      36.085  39.108  13.032  1.00 33.89     0.027 A 
ATOM     12  CZ  TYR A 136      35.468  40.123  12.297  1.00 34.34     0.131 A 
ATOM     13  OH  TYR A 136      34.858  41.193  12.937  1.00 35.14    -0.190 OA
ATOM     14  CE1 TYR A 136      35.464  40.078  10.910  1.00 35.01     0.027 A 
ATOM     15  CD1 TYR A 136      36.076  39.007  10.256  1.00 33.57    -0.002 A 
ENDBRANCH   8   9
ENDBRANCH   7   8
END_RES TYR A 136
BEGIN_RES ASN A 133
REMARK  2 active torsions:
REMARK  status: ('A' for Active; 'I' for Inactive)
REMARK    7  A    between atoms: CA   and  CB  
REMARK    8  A    between atoms: CB   and  CG  
ROOT
ATOM     16  CA  ASN A 133      31.225  30.257  11.749  1.00 18.15     0.196 C 
ENDROOT
BRANCH  16  17
ATOM     17  CB  ASN A 133      30.092  31.240  11.460  1.00 18.27     0.126 C 
BRANCH  17  18
ATOM     18  CG  ASN A 133      28.745  30.590  11.403  1.00 18.94     0.276 C 
ATOM     19  OD1 ASN A 133      27.827  30.957  12.139  1.00 18.09    -0.269 OA
ATOM     20  ND2 ASN A 133      28.611  29.602  10.518  1.00 18.93    -0.107 N 
ENDBRANCH  17  18
ENDBRANCH  16  17
END_RES ASN A 133
