REMARK VINA RESULT:    -4.393      3.334      5.197
REMARK INTER + INTRA:          -6.877
REMARK INTER:                  -3.702
REMARK INTRA:                  -3.175
REMARK UNBOUND:                -2.227
REMARK SMILES Cc1ccc(-n2cc(C)nn2)cc1
REMARK SMILES IDX 5 1 4 2 3 3 2 4 1 5 13 6 12 7 6 8 9 9 8 10 7 11 10 12 11 13
REMARK H PARENT
REMARK Flexibility Score: inf
ROOT
ATOM      1  C   UNL     1      27.360  29.284  17.757  1.00  0.00     0.066 A 
ATOM      2  C   UNL     1      27.730  28.860  19.007  1.00  0.00     0.029 A 
ATOM      3  C   UNL     1      26.881  28.055  19.741  1.00  0.00     0.005 A 
ATOM      4  C   UNL     1      25.650  27.648  19.269  1.00  0.00    -0.051 A 
ATOM      5  C   UNL     1      24.750  26.782  20.076  1.00  0.00     0.044 C 
ATOM      6  C   UNL     1      25.299  28.090  18.005  1.00  0.00     0.005 A 
ATOM      7  C   UNL     1      26.136  28.895  17.254  1.00  0.00     0.029 A 
ENDROOT
BRANCH   1   8
ATOM      8  N   UNL     1      28.207  30.101  16.992  1.00  0.00    -0.220 N 
ATOM      9  C   UNL     1      30.969  32.437  16.606  1.00  0.00     0.070 C 
ATOM     10  C   UNL     1      29.811  31.508  16.435  1.00  0.00     0.080 A 
ATOM     11  C   UNL     1      29.210  30.851  17.484  1.00  0.00     0.140 A 
ATOM     12  N   UNL     1      29.161  31.143  15.338  1.00  0.00    -0.135 NA
ATOM     13  N   UNL     1      28.203  30.301  15.672  1.00  0.00    -0.062 NA
ENDBRANCH   1   8
TORSDOF 1
BEGIN_RES LYS A 135
REMARK  4 active torsions:
REMARK  status: ('A' for Active; 'I' for Inactive)
REMARK    1  A    between atoms: CA   and  CB  
REMARK    2  A    between atoms: CB   and  CG  
REMARK    3  A    between atoms: CG   and  CD  
REMARK    4  A    between atoms: CD   and  CE  
ROOT
ATOM      1  CA  LYS A 135      33.193  34.663   9.290  1.00 25.02     0.186 C 
ENDROOT
BRANCH   1   2
ATOM      2  CB  LYS A 135      32.060  35.360  10.034  1.00 26.63     0.034 C 
BRANCH   2   3
ATOM      3  CG  LYS A 135      30.706  34.750   9.778  1.00 29.45     0.005 C 
BRANCH   3   4
ATOM      4  CD  LYS A 135      30.461  34.596   8.285  1.00 32.00     0.041 C 
BRANCH   4   5
ATOM      5  CE  LYS A 135      29.005  34.862   7.954  1.00 34.25     0.338 C 
ATOM      6  NZ  LYS A 135      28.868  35.527   6.629  1.00 35.99     0.618 N 
ENDBRANCH   4   5
ENDBRANCH   3   4
ENDBRANCH   2   3
ENDBRANCH   1   2
END_RES LYS A 135
BEGIN_RES TYR A 136
REMARK  2 active torsions:
REMARK  status: ('A' for Active; 'I' for Inactive)
REMARK    5  A    between atoms: CA   and  CB  
REMARK    6  A    between atoms: CB   and  CG  
ROOT
ATOM      7  CA  TYR A 136      36.583  36.399   8.994  1.00 26.14     0.191 C 
ENDROOT
BRANCH   7   8
ATOM      8  CB  TYR A 136      37.367  36.835  10.240  1.00 28.16     0.060 C 
BRANCH   8   9
ATOM      9  CG  TYR A 136      37.167  38.294  10.571  1.00 31.88    -0.020 A 
ATOM     10  CD2 TYR A 136      36.016  38.734  11.229  1.00 32.67    -0.002 A 
ATOM     11  CE2 TYR A 136      35.839  40.092  11.531  1.00 33.89     0.027 A 
ATOM     12  CZ  TYR A 136      36.822  41.016  11.169  1.00 34.34     0.131 A 
ATOM     13  OH  TYR A 136      36.670  42.364  11.463  1.00 35.14    -0.190 OA
ATOM     14  CE1 TYR A 136      37.970  40.596  10.513  1.00 35.01     0.027 A 
ATOM     15  CD1 TYR A 136      38.132  39.243  10.213  1.00 33.57    -0.002 A 
ENDBRANCH   8   9
ENDBRANCH   7   8
END_RES TYR A 136
BEGIN_RES ASN A 133
REMARK  2 active torsions:
REMARK  status: ('A' for Active; 'I' for Inactive)
REMARK    7  A    between atoms: CA   and  CB  
REMARK    8  A    between atoms: CB   and  CG  
ROOT
ATOM     16  CA  ASN A 133      31.225  30.257  11.749  1.00 18.15     0.196 C 
ENDROOT
BRANCH  16  17
ATOM     17  CB  ASN A 133      30.092  31.240  11.460  1.00 18.27     0.126 C 
BRANCH  17  18
ATOM     18  CG  ASN A 133      28.748  30.585  11.373  1.00 18.94     0.276 C 
ATOM     19  OD1 ASN A 133      28.564  29.600  10.656  1.00 18.09    -0.269 OA
ATOM     20  ND2 ASN A 133      27.783  31.134  12.110  1.00 18.93    -0.107 N 
ENDBRANCH  17  18
ENDBRANCH  16  17
END_RES ASN A 133
