REMARK VINA RESULT:    -3.727      8.586     11.797
REMARK INTER + INTRA:          -7.196
REMARK INTER:                  -4.016
REMARK INTRA:                  -3.180
REMARK UNBOUND:                -3.251
REMARK SMILES Cc1cn([C@H]2C[C@H]3CC[C@@H](C2)N3C)nn1
REMARK SMILES IDX 5 1 11 2 10 3 12 4 13 5 7 6 6 7 8 8 9 9 4 10 1 11 2 12 3 13
REMARK SMILES IDX 15 14 14 15
REMARK H PARENT
REMARK Flexibility Score: inf
ROOT
ATOM      1  C   UNL     1      34.967  38.771   5.668  1.00  0.00     0.112 C 
ATOM      2  C   UNL     1      33.940  39.808   5.260  1.00  0.00     0.046 C 
ATOM      3  C   UNL     1      33.477  40.617   6.442  1.00  0.00     0.058 C 
ATOM      4  N   UNL     1      33.680  39.777   7.629  1.00  0.00    -0.300 NA
ATOM      5  C   UNL     1      32.874  40.345   8.676  1.00  0.00     0.105 C 
ATOM      6  C   UNL     1      35.100  39.953   7.872  1.00  0.00     0.058 C 
ATOM      7  C   UNL     1      35.866  39.397   6.698  1.00  0.00     0.046 C 
ATOM      8  C   UNL     1      35.261  41.468   7.819  1.00  0.00     0.021 C 
ATOM      9  C   UNL     1      34.310  41.829   6.703  1.00  0.00     0.021 C 
ENDROOT
BRANCH   1  10
ATOM     10  N   UNL     1      35.774  38.382   4.533  1.00  0.00    -0.249 N 
ATOM     11  C   UNL     1      38.780  37.220   2.827  1.00  0.00     0.070 C 
ATOM     12  C   UNL     1      37.436  37.697   3.224  1.00  0.00     0.080 A 
ATOM     13  C   UNL     1      37.048  37.971   4.531  1.00  0.00     0.134 A 
ATOM     14  N   UNL     1      36.361  37.960   2.477  1.00  0.00    -0.136 NA
ATOM     15  N   UNL     1      35.383  38.364   3.266  1.00  0.00    -0.067 NA
ENDBRANCH   1  10
TORSDOF 1
BEGIN_RES LYS A 135
REMARK  4 active torsions:
REMARK  status: ('A' for Active; 'I' for Inactive)
REMARK    1  A    between atoms: CA   and  CB  
REMARK    2  A    between atoms: CB   and  CG  
REMARK    3  A    between atoms: CG   and  CD  
REMARK    4  A    between atoms: CD   and  CE  
ROOT
ATOM      1  CA  LYS A 135      33.193  34.663   9.290  1.00 25.02     0.186 C 
ENDROOT
BRANCH   1   2
ATOM      2  CB  LYS A 135      32.060  35.360  10.034  1.00 26.63     0.034 C 
BRANCH   2   3
ATOM      3  CG  LYS A 135      30.712  34.724   9.811  1.00 29.45     0.005 C 
BRANCH   3   4
ATOM      4  CD  LYS A 135      30.346  34.746   8.335  1.00 32.00     0.041 C 
BRANCH   4   5
ATOM      5  CE  LYS A 135      28.847  34.603   8.155  1.00 34.25     0.338 C 
ATOM      6  NZ  LYS A 135      28.235  33.883   9.306  1.00 35.99     0.618 N 
ENDBRANCH   4   5
ENDBRANCH   3   4
ENDBRANCH   2   3
ENDBRANCH   1   2
END_RES LYS A 135
BEGIN_RES TYR A 136
REMARK  2 active torsions:
REMARK  status: ('A' for Active; 'I' for Inactive)
REMARK    5  A    between atoms: CA   and  CB  
REMARK    6  A    between atoms: CB   and  CG  
ROOT
ATOM      7  CA  TYR A 136      36.583  36.399   8.994  1.00 26.14     0.191 C 
ENDROOT
BRANCH   7   8
ATOM      8  CB  TYR A 136      37.367  36.835  10.240  1.00 28.16     0.060 C 
BRANCH   8   9
ATOM      9  CG  TYR A 136      37.219  38.308  10.533  1.00 31.88    -0.020 A 
ATOM     10  CD2 TYR A 136      38.149  39.236  10.060  1.00 32.67    -0.002 A 
ATOM     11  CE2 TYR A 136      38.004  40.602  10.339  1.00 33.89     0.027 A 
ATOM     12  CZ  TYR A 136      36.917  41.043  11.098  1.00 34.34     0.131 A 
ATOM     13  OH  TYR A 136      36.749  42.391  11.381  1.00 35.14    -0.190 OA
ATOM     14  CE1 TYR A 136      35.984  40.134  11.577  1.00 35.01     0.027 A 
ATOM     15  CD1 TYR A 136      36.143  38.776  11.298  1.00 33.57    -0.002 A 
ENDBRANCH   8   9
ENDBRANCH   7   8
END_RES TYR A 136
BEGIN_RES ASN A 133
REMARK  2 active torsions:
REMARK  status: ('A' for Active; 'I' for Inactive)
REMARK    7  A    between atoms: CA   and  CB  
REMARK    8  A    between atoms: CB   and  CG  
ROOT
ATOM     16  CA  ASN A 133      31.225  30.257  11.749  1.00 18.15     0.196 C 
ENDROOT
BRANCH  16  17
ATOM     17  CB  ASN A 133      30.092  31.240  11.460  1.00 18.27     0.126 C 
BRANCH  17  18
ATOM     18  CG  ASN A 133      28.753  30.581  11.340  1.00 18.94     0.276 C 
ATOM     19  OD1 ASN A 133      28.589  29.596  10.617  1.00 18.09    -0.269 OA
ATOM     20  ND2 ASN A 133      27.769  31.125  12.054  1.00 18.93    -0.107 N 
ENDBRANCH  17  18
ENDBRANCH  16  17
END_RES ASN A 133
