REMARK VINA RESULT:    -4.013      9.058     13.755
REMARK INTER + INTRA:          -7.659
REMARK INTER:                  -4.830
REMARK INTRA:                  -2.829
REMARK UNBOUND:                -3.176
REMARK SMILES Cc1cn(-c2ccc([N+](=O)[O-])cc2)nn1
REMARK SMILES IDX 5 1 6 2 7 3 8 4 12 5 13 6 4 7 1 8 2 9 3 10 15 11 14 12 9 13
REMARK SMILES IDX 10 14 11 15
REMARK H PARENT
REMARK Flexibility Score: inf
ROOT
ATOM      1  C   UNL     1      34.099  35.194  13.503  1.00  0.00     0.067 A 
ATOM      2  C   UNL     1      33.735  36.121  12.556  1.00  0.00     0.035 A 
ATOM      3  C   UNL     1      32.395  36.510  12.412  1.00  0.00     0.088 A 
ATOM      4  C   UNL     1      31.427  35.960  13.222  1.00  0.00     0.269 A 
ATOM      5  C   UNL     1      31.780  35.043  14.159  1.00  0.00     0.088 A 
ATOM      6  C   UNL     1      33.117  34.660  14.300  1.00  0.00     0.035 A 
ENDROOT
BRANCH   1   7
ATOM      7  N   UNL     1      35.456  34.826  13.623  1.00  0.00    -0.220 N 
ATOM      8  C   UNL     1      38.591  33.163  12.702  1.00  0.00     0.070 C 
ATOM      9  C   UNL     1      37.433  33.906  13.233  1.00  0.00     0.080 A 
ATOM     10  C   UNL     1      36.146  34.023  12.777  1.00  0.00     0.140 A 
ATOM     11  N   UNL     1      37.499  34.653  14.362  1.00  0.00    -0.135 NA
ATOM     12  N   UNL     1      36.318  35.191  14.577  1.00  0.00    -0.062 NA
ENDBRANCH   1   7
BRANCH   4  13
ATOM     13  N   UNL     1      30.065  36.377  13.048  1.00  0.00     0.062 N 
ATOM     14  O   UNL     1      29.812  37.375  12.364  1.00  0.00    -0.258 OA
ATOM     15  O   UNL     1      29.048  35.691  13.624  1.00  0.00    -0.258 OA
ENDBRANCH   4  13
TORSDOF 2
BEGIN_RES LYS A 135
REMARK  4 active torsions:
REMARK  status: ('A' for Active; 'I' for Inactive)
REMARK    1  A    between atoms: CA   and  CB  
REMARK    2  A    between atoms: CB   and  CG  
REMARK    3  A    between atoms: CG   and  CD  
REMARK    4  A    between atoms: CD   and  CE  
ROOT
ATOM      1  CA  LYS A 135      33.193  34.663   9.290  1.00 25.02     0.186 C 
ENDROOT
BRANCH   1   2
ATOM      2  CB  LYS A 135      32.060  35.360  10.034  1.00 26.63     0.034 C 
BRANCH   2   3
ATOM      3  CG  LYS A 135      30.830  35.577   9.191  1.00 29.45     0.005 C 
BRANCH   3   4
ATOM      4  CD  LYS A 135      30.289  34.251   8.679  1.00 32.00     0.041 C 
BRANCH   4   5
ATOM      5  CE  LYS A 135      28.890  34.005   9.210  1.00 34.25     0.338 C 
ATOM      6  NZ  LYS A 135      28.443  35.125  10.084  1.00 35.99     0.618 N 
ENDBRANCH   4   5
ENDBRANCH   3   4
ENDBRANCH   2   3
ENDBRANCH   1   2
END_RES LYS A 135
BEGIN_RES TYR A 136
REMARK  2 active torsions:
REMARK  status: ('A' for Active; 'I' for Inactive)
REMARK    5  A    between atoms: CA   and  CB  
REMARK    6  A    between atoms: CB   and  CG  
ROOT
ATOM      7  CA  TYR A 136      36.583  36.399   8.994  1.00 26.14     0.191 C 
ENDROOT
BRANCH   7   8
ATOM      8  CB  TYR A 136      37.367  36.835  10.240  1.00 28.16     0.060 C 
BRANCH   8   9
ATOM      9  CG  TYR A 136      36.638  37.881  11.048  1.00 31.88    -0.020 A 
ATOM     10  CD2 TYR A 136      35.734  38.759  10.446  1.00 32.67    -0.002 A 
ATOM     11  CE2 TYR A 136      35.064  39.728  11.205  1.00 33.89     0.027 A 
ATOM     12  CZ  TYR A 136      35.300  39.819  12.579  1.00 34.34     0.131 A 
ATOM     13  OH  TYR A 136      34.642  40.765  13.351  1.00 35.14    -0.190 OA
ATOM     14  CE1 TYR A 136      36.195  38.955  13.193  1.00 35.01     0.027 A 
ATOM     15  CD1 TYR A 136      36.862  37.998  12.425  1.00 33.57    -0.002 A 
ENDBRANCH   8   9
ENDBRANCH   7   8
END_RES TYR A 136
BEGIN_RES ASN A 133
REMARK  2 active torsions:
REMARK  status: ('A' for Active; 'I' for Inactive)
REMARK    7  A    between atoms: CA   and  CB  
REMARK    8  A    between atoms: CB   and  CG  
ROOT
ATOM     16  CA  ASN A 133      31.225  30.257  11.749  1.00 18.15     0.196 C 
ENDROOT
BRANCH  16  17
ATOM     17  CB  ASN A 133      30.092  31.240  11.460  1.00 18.27     0.126 C 
BRANCH  17  18
ATOM     18  CG  ASN A 133      28.752  30.581  11.345  1.00 18.94     0.276 C 
ATOM     19  OD1 ASN A 133      28.585  29.596  10.624  1.00 18.09    -0.269 OA
ATOM     20  ND2 ASN A 133      27.771  31.127  12.063  1.00 18.93    -0.107 N 
ENDBRANCH  17  18
ENDBRANCH  16  17
END_RES ASN A 133
