REMARK VINA RESULT:    -4.522      8.703     15.603
REMARK INTER + INTRA:          -7.570
REMARK INTER:                  -4.522
REMARK INTRA:                  -3.048
REMARK UNBOUND:                -2.784
REMARK SMILES Cc1cc(C)c(-n2cc(C)nn2)c(C)c1
REMARK SMILES IDX 6 1 4 2 5 3 3 4 2 5 1 6 15 7 13 8 14 9 7 10 10 11 9 12 8 13
REMARK SMILES IDX 11 14 12 15
REMARK H PARENT
REMARK Flexibility Score: inf
ROOT
ATOM      1  C   UNL     1      22.359  33.598  -1.128  1.00  0.00     0.072 A 
ATOM      2  C   UNL     1      22.004  32.777  -2.180  1.00  0.00    -0.025 A 
ATOM      3  C   UNL     1      21.654  33.372  -3.509  1.00  0.00     0.047 C 
ATOM      4  C   UNL     1      21.968  31.395  -2.017  1.00  0.00     0.009 A 
ATOM      5  C   UNL     1      22.283  30.805  -0.809  1.00  0.00    -0.050 A 
ATOM      6  C   UNL     1      22.241  29.317  -0.642  1.00  0.00     0.044 C 
ATOM      7  C   UNL     1      22.636  31.611   0.239  1.00  0.00     0.009 A 
ATOM      8  C   UNL     1      22.673  32.980   0.081  1.00  0.00    -0.025 A 
ATOM      9  C   UNL     1      23.059  33.838   1.228  1.00  0.00     0.047 C 
ENDROOT
BRANCH   1  10
ATOM     10  N   UNL     1      22.404  35.017  -1.267  1.00  0.00    -0.220 N 
ATOM     11  C   UNL     1      23.810  38.326  -1.927  1.00  0.00     0.070 C 
ATOM     12  C   UNL     1      23.023  37.113  -1.615  1.00  0.00     0.080 A 
ATOM     13  C   UNL     1      23.437  35.799  -1.605  1.00  0.00     0.140 A 
ATOM     14  N   UNL     1      21.716  37.085  -1.272  1.00  0.00    -0.135 NA
ATOM     15  N   UNL     1      21.365  35.836  -1.068  1.00  0.00    -0.062 NA
ENDBRANCH   1  10
TORSDOF 1
BEGIN_RES LYS A 135
REMARK  4 active torsions:
REMARK  status: ('A' for Active; 'I' for Inactive)
REMARK    1  A    between atoms: CA   and  CB  
REMARK    2  A    between atoms: CB   and  CG  
REMARK    3  A    between atoms: CG   and  CD  
REMARK    4  A    between atoms: CD   and  CE  
ROOT
ATOM      1  CA  LYS A 135      33.193  34.663   9.290  1.00 25.02     0.186 C 
ENDROOT
BRANCH   1   2
ATOM      2  CB  LYS A 135      32.060  35.360  10.034  1.00 26.63     0.034 C 
BRANCH   2   3
ATOM      3  CG  LYS A 135      30.790  35.472   9.230  1.00 29.45     0.005 C 
BRANCH   3   4
ATOM      4  CD  LYS A 135      30.160  34.103   9.028  1.00 32.00     0.041 C 
BRANCH   4   5
ATOM      5  CE  LYS A 135      28.661  34.229   8.838  1.00 34.25     0.338 C 
ATOM      6  NZ  LYS A 135      28.339  35.083   7.661  1.00 35.99     0.618 N 
ENDBRANCH   4   5
ENDBRANCH   3   4
ENDBRANCH   2   3
ENDBRANCH   1   2
END_RES LYS A 135
BEGIN_RES TYR A 136
REMARK  2 active torsions:
REMARK  status: ('A' for Active; 'I' for Inactive)
REMARK    5  A    between atoms: CA   and  CB  
REMARK    6  A    between atoms: CB   and  CG  
ROOT
ATOM      7  CA  TYR A 136      36.583  36.399   8.994  1.00 26.14     0.191 C 
ENDROOT
BRANCH   7   8
ATOM      8  CB  TYR A 136      37.367  36.835  10.240  1.00 28.16     0.060 C 
BRANCH   8   9
ATOM      9  CG  TYR A 136      37.242  38.313  10.516  1.00 31.88    -0.020 A 
ATOM     10  CD2 TYR A 136      37.962  38.919  11.548  1.00 32.67    -0.002 A 
ATOM     11  CE2 TYR A 136      37.838  40.293  11.798  1.00 33.89     0.027 A 
ATOM     12  CZ  TYR A 136      36.985  41.067  11.007  1.00 34.34     0.131 A 
ATOM     13  OH  TYR A 136      36.852  42.430  11.231  1.00 35.14    -0.190 OA
ATOM     14  CE1 TYR A 136      36.262  40.481   9.978  1.00 35.01     0.027 A 
ATOM     15  CD1 TYR A 136      36.389  39.111   9.744  1.00 33.57    -0.002 A 
ENDBRANCH   8   9
ENDBRANCH   7   8
END_RES TYR A 136
BEGIN_RES ASN A 133
REMARK  2 active torsions:
REMARK  status: ('A' for Active; 'I' for Inactive)
REMARK    7  A    between atoms: CA   and  CB  
REMARK    8  A    between atoms: CB   and  CG  
ROOT
ATOM     16  CA  ASN A 133      31.225  30.257  11.749  1.00 18.15     0.196 C 
ENDROOT
BRANCH  16  17
ATOM     17  CB  ASN A 133      30.092  31.240  11.460  1.00 18.27     0.126 C 
BRANCH  17  18
ATOM     18  CG  ASN A 133      28.752  30.582  11.348  1.00 18.94     0.276 C 
ATOM     19  OD1 ASN A 133      28.582  29.601  10.621  1.00 18.09    -0.269 OA
ATOM     20  ND2 ASN A 133      27.774  31.123  12.073  1.00 18.93    -0.107 N 
ENDBRANCH  17  18
ENDBRANCH  16  17
END_RES ASN A 133
