REMARK VINA RESULT:    -4.887      2.581      4.198
REMARK INTER + INTRA:          -6.486
REMARK INTER:                  -3.833
REMARK INTRA:                  -2.653
REMARK UNBOUND:                -1.313
REMARK SMILES Cc1cn(-c2ccccc2I)nn1
REMARK SMILES IDX 5 1 6 2 7 3 8 4 9 5 10 6 11 7 4 8 1 9 2 10 3 11 13 12 12 13
REMARK H PARENT
REMARK Flexibility Score: inf
ROOT
ATOM      1  C   UNL     1      37.314  37.220  14.068  1.00  0.00     0.080 A 
ATOM      2  C   UNL     1      37.636  38.526  14.375  1.00  0.00     0.029 A 
ATOM      3  C   UNL     1      36.682  39.531  14.420  1.00  0.00     0.002 A 
ATOM      4  C   UNL     1      35.350  39.233  14.148  1.00  0.00     0.001 A 
ATOM      5  C   UNL     1      35.008  37.931  13.837  1.00  0.00     0.017 A 
ATOM      6  C   UNL     1      35.977  36.951  13.800  1.00  0.00     0.039 A 
ATOM      7  I   UNL     1      35.419  34.973  13.323  1.00  0.00    -0.042 I 
ENDROOT
BRANCH   1   8
ATOM      8  N   UNL     1      38.312  36.197  14.026  1.00  0.00    -0.219 N 
ATOM      9  C   UNL     1      40.854  33.981  12.680  1.00  0.00     0.070 C 
ATOM     10  C   UNL     1      39.855  34.774  13.463  1.00  0.00     0.080 A 
ATOM     11  C   UNL     1      39.036  35.771  12.995  1.00  0.00     0.140 A 
ATOM     12  N   UNL     1      39.586  34.639  14.772  1.00  0.00    -0.135 NA
ATOM     13  N   UNL     1      38.662  35.498  15.094  1.00  0.00    -0.062 NA
ENDBRANCH   1   8
TORSDOF 1
BEGIN_RES LYS A 135
REMARK  4 active torsions:
REMARK  status: ('A' for Active; 'I' for Inactive)
REMARK    1  A    between atoms: CA   and  CB  
REMARK    2  A    between atoms: CB   and  CG  
REMARK    3  A    between atoms: CG   and  CD  
REMARK    4  A    between atoms: CD   and  CE  
ROOT
ATOM      1  CA  LYS A 135      33.193  34.663   9.290  1.00 25.02     0.186 C 
ENDROOT
BRANCH   1   2
ATOM      2  CB  LYS A 135      32.060  35.360  10.034  1.00 26.63     0.034 C 
BRANCH   2   3
ATOM      3  CG  LYS A 135      30.740  35.305   9.309  1.00 29.45     0.005 C 
BRANCH   3   4
ATOM      4  CD  LYS A 135      29.728  34.490  10.099  1.00 32.00     0.041 C 
BRANCH   4   5
ATOM      5  CE  LYS A 135      28.554  34.102   9.219  1.00 34.25     0.338 C 
ATOM      6  NZ  LYS A 135      28.636  34.770   7.891  1.00 35.99     0.618 N 
ENDBRANCH   4   5
ENDBRANCH   3   4
ENDBRANCH   2   3
ENDBRANCH   1   2
END_RES LYS A 135
BEGIN_RES TYR A 136
REMARK  2 active torsions:
REMARK  status: ('A' for Active; 'I' for Inactive)
REMARK    5  A    between atoms: CA   and  CB  
REMARK    6  A    between atoms: CB   and  CG  
ROOT
ATOM      7  CA  TYR A 136      36.583  36.399   8.994  1.00 26.14     0.191 C 
ENDROOT
BRANCH   7   8
ATOM      8  CB  TYR A 136      37.367  36.835  10.240  1.00 28.16     0.060 C 
BRANCH   8   9
ATOM      9  CG  TYR A 136      37.251  38.315  10.510  1.00 31.88    -0.020 A 
ATOM     10  CD2 TYR A 136      38.367  39.075  10.867  1.00 32.67    -0.002 A 
ATOM     11  CE2 TYR A 136      38.248  40.449  11.118  1.00 33.89     0.027 A 
ATOM     12  CZ  TYR A 136      37.000  41.068  11.011  1.00 34.34     0.131 A 
ATOM     13  OH  TYR A 136      36.860  42.428  11.247  1.00 35.14    -0.190 OA
ATOM     14  CE1 TYR A 136      35.881  40.328  10.658  1.00 35.01     0.027 A 
ATOM     15  CD1 TYR A 136      36.010  38.959  10.417  1.00 33.57    -0.002 A 
ENDBRANCH   8   9
ENDBRANCH   7   8
END_RES TYR A 136
BEGIN_RES ASN A 133
REMARK  2 active torsions:
REMARK  status: ('A' for Active; 'I' for Inactive)
REMARK    7  A    between atoms: CA   and  CB  
REMARK    8  A    between atoms: CB   and  CG  
ROOT
ATOM     16  CA  ASN A 133      31.225  30.257  11.749  1.00 18.15     0.196 C 
ENDROOT
BRANCH  16  17
ATOM     17  CB  ASN A 133      30.092  31.240  11.460  1.00 18.27     0.126 C 
BRANCH  17  18
ATOM     18  CG  ASN A 133      28.757  30.578  11.311  1.00 18.94     0.276 C 
ATOM     19  OD1 ASN A 133      28.607  29.604  10.570  1.00 18.09    -0.269 OA
ATOM     20  ND2 ASN A 133      27.762  31.106  12.022  1.00 18.93    -0.107 N 
ENDBRANCH  17  18
ENDBRANCH  16  17
END_RES ASN A 133
