REMARK VINA RESULT:    -6.112      3.234      6.327
REMARK INTER + INTRA:         -11.141
REMARK INTER:                  -7.383
REMARK INTRA:                  -3.758
REMARK UNBOUND:                -3.778
REMARK SMILES Cc1cn(-c2ccc(-c3c4ccc(=O)cc-4oc4cc(O)ccc34)c(C(=O)[O-])c2)nn1
REMARK SMILES IDX 9 1 24 2 23 3 22 4 20 5 19 6 18 7 17 8 16 9 15 10 13 11
REMARK SMILES IDX 14 12 12 13 11 14 10 15 8 16 5 17 29 18 6 19 25 20 7 21 4 22
REMARK SMILES IDX 1 23 2 24 3 25 31 26 30 27 26 28 27 29 28 30 21 31
REMARK H PARENT 21 32
REMARK Flexibility Score: inf
ROOT
ATOM      1  C   UNL     1      35.093  36.602  14.424  1.00  0.00     0.004 A 
ATOM      2  C   UNL     1      35.911  35.553  14.063  1.00  0.00     0.026 A 
ATOM      3  C   UNL     1      35.623  34.815  12.935  1.00  0.00     0.016 A 
ATOM      4  C   UNL     1      36.418  33.752  12.535  1.00  0.00     0.047 A 
ATOM      5  C   UNL     1      37.520  33.445  13.302  1.00  0.00     0.119 A 
ATOM      6  C   UNL     1      37.810  34.182  14.431  1.00  0.00     0.093 A 
ATOM      7  C   UNL     1      37.019  35.255  14.845  1.00  0.00     0.139 A 
ATOM      8  O   UNL     1      37.324  35.935  15.926  1.00  0.00    -0.456 OA
ATOM      9  C   UNL     1      36.618  36.937  16.345  1.00  0.00     0.139 A 
ATOM     10  C   UNL     1      36.907  37.672  17.470  1.00  0.00     0.099 A 
ATOM     11  C   UNL     1      36.078  38.714  17.813  1.00  0.00     0.182 A 
ATOM     12  O   UNL     1      36.350  39.380  18.842  1.00  0.00    -0.290 OA
ATOM     13  C   UNL     1      34.963  39.053  17.069  1.00  0.00     0.053 A 
ATOM     14  C   UNL     1      34.613  38.361  15.930  1.00  0.00     0.016 A 
ATOM     15  C   UNL     1      35.431  37.305  15.561  1.00  0.00     0.026 A 
ENDROOT
BRANCH   1  16
ATOM     16  C   UNL     1      33.941  36.906  13.603  1.00  0.00    -0.008 A 
ATOM     17  C   UNL     1      31.675  37.450  12.061  1.00  0.00     0.067 A 
ATOM     18  C   UNL     1      31.584  36.598  13.141  1.00  0.00     0.039 A 
ATOM     19  C   UNL     1      32.891  38.036  11.741  1.00  0.00     0.029 A 
ATOM     20  C   UNL     1      32.716  36.341  13.892  1.00  0.00     0.007 A 
ATOM     21  C   UNL     1      34.005  37.757  12.515  1.00  0.00     0.012 A 
BRANCH  17  22
ATOM     22  N   UNL     1      30.545  37.751  11.253  1.00  0.00    -0.220 N 
ATOM     23  C   UNL     1      28.993  38.925   8.127  1.00  0.00     0.070 C 
ATOM     24  C   UNL     1      29.351  38.414   9.483  1.00  0.00     0.080 A 
ATOM     25  C   UNL     1      30.627  38.232   9.977  1.00  0.00     0.140 A 
ATOM     26  N   UNL     1      28.531  38.036  10.479  1.00  0.00    -0.135 NA
ATOM     27  N   UNL     1      29.272  37.648  11.515  1.00  0.00    -0.062 NA
ENDBRANCH  17  22
BRANCH  20  28
ATOM     28  C   UNL     1      32.605  35.439  15.033  1.00  0.00     0.072 C 
ATOM     29  O   UNL     1      32.320  35.855  16.179  1.00  0.00    -0.545 OA
ATOM     30  O   UNL     1      32.810  34.074  14.886  1.00  0.00    -0.545 OA
ENDBRANCH  20  28
ENDBRANCH   1  16
BRANCH   5  31
ATOM     31  O   UNL     1      38.333  32.370  12.905  1.00  0.00    -0.508 OA
ATOM     32  H   UNL     1      37.913  31.484  12.662  1.00  0.00     0.293 HD
ENDBRANCH   5  31
TORSDOF 4
BEGIN_RES LYS A 135
REMARK  4 active torsions:
REMARK  status: ('A' for Active; 'I' for Inactive)
REMARK    1  A    between atoms: CA   and  CB  
REMARK    2  A    between atoms: CB   and  CG  
REMARK    3  A    between atoms: CG   and  CD  
REMARK    4  A    between atoms: CD   and  CE  
ROOT
ATOM      1  CA  LYS A 135      33.193  34.663   9.290  1.00 25.02     0.186 C 
ENDROOT
BRANCH   1   2
ATOM      2  CB  LYS A 135      32.060  35.360  10.034  1.00 26.63     0.034 C 
BRANCH   2   3
ATOM      3  CG  LYS A 135      30.712  34.725   9.810  1.00 29.45     0.005 C 
BRANCH   3   4
ATOM      4  CD  LYS A 135      30.382  34.674   8.326  1.00 32.00     0.041 C 
BRANCH   4   5
ATOM      5  CE  LYS A 135      28.890  34.838   8.106  1.00 34.25     0.338 C 
ATOM      6  NZ  LYS A 135      28.610  35.510   6.807  1.00 35.99     0.618 N 
ENDBRANCH   4   5
ENDBRANCH   3   4
ENDBRANCH   2   3
ENDBRANCH   1   2
END_RES LYS A 135
BEGIN_RES TYR A 136
REMARK  2 active torsions:
REMARK  status: ('A' for Active; 'I' for Inactive)
REMARK    5  A    between atoms: CA   and  CB  
REMARK    6  A    between atoms: CB   and  CG  
ROOT
ATOM      7  CA  TYR A 136      36.583  36.399   8.994  1.00 26.14     0.191 C 
ENDROOT
BRANCH   7   8
ATOM      8  CB  TYR A 136      37.367  36.835  10.240  1.00 28.16     0.060 C 
BRANCH   8   9
ATOM      9  CG  TYR A 136      36.966  38.205  10.728  1.00 31.88    -0.020 A 
ATOM     10  CD2 TYR A 136      36.235  39.076   9.917  1.00 32.67    -0.002 A 
ATOM     11  CE2 TYR A 136      35.869  40.348  10.379  1.00 33.89     0.027 A 
ATOM     12  CZ  TYR A 136      36.238  40.752  11.664  1.00 34.34     0.131 A 
ATOM     13  OH  TYR A 136      35.880  42.004  12.145  1.00 35.14    -0.190 OA
ATOM     14  CE1 TYR A 136      36.965  39.900  12.483  1.00 35.01     0.027 A 
ATOM     15  CD1 TYR A 136      37.329  38.638  12.009  1.00 33.57    -0.002 A 
ENDBRANCH   8   9
ENDBRANCH   7   8
END_RES TYR A 136
BEGIN_RES ASN A 133
REMARK  2 active torsions:
REMARK  status: ('A' for Active; 'I' for Inactive)
REMARK    7  A    between atoms: CA   and  CB  
REMARK    8  A    between atoms: CB   and  CG  
ROOT
ATOM     16  CA  ASN A 133      31.225  30.257  11.749  1.00 18.15     0.196 C 
ENDROOT
BRANCH  16  17
ATOM     17  CB  ASN A 133      30.092  31.240  11.460  1.00 18.27     0.126 C 
BRANCH  17  18
ATOM     18  CG  ASN A 133      28.750  30.584  11.362  1.00 18.94     0.276 C 
ATOM     19  OD1 ASN A 133      28.571  29.600  10.640  1.00 18.09    -0.269 OA
ATOM     20  ND2 ASN A 133      27.779  31.129  12.094  1.00 18.93    -0.107 N 
ENDBRANCH  17  18
ENDBRANCH  16  17
END_RES ASN A 133
