REMARK VINA RESULT:    -3.626      4.327      7.367
REMARK INTER + INTRA:          -6.958
REMARK INTER:                  -4.050
REMARK INTRA:                  -2.907
REMARK UNBOUND:                -2.907
REMARK SMILES Cc1cn(Cc2ccccc2Br)nn1
REMARK SMILES IDX 5 1 4 2 1 3 2 4 3 5 14 6 13 7 6 8 7 9 11 10 8 11 10 12 12 13
REMARK SMILES IDX 9 14
REMARK H PARENT
REMARK Flexibility Score: inf
ROOT
ATOM      1  C   UNL     1      25.413  31.544  15.559  1.00  0.00     0.182 C 
ENDROOT
BRANCH   1   2
ATOM      2  N   UNL     1      26.806  31.162  15.654  1.00  0.00    -0.248 N 
ATOM      3  C   UNL     1      30.407  31.892  15.784  1.00  0.00     0.070 C 
ATOM      4  C   UNL     1      29.013  31.328  15.753  1.00  0.00     0.080 A 
ATOM      5  C   UNL     1      27.843  32.033  15.645  1.00  0.00     0.134 A 
ATOM      6  N   UNL     1      28.653  30.014  15.827  1.00  0.00    -0.136 NA
ATOM      7  N   UNL     1      27.335  29.986  15.763  1.00  0.00    -0.067 NA
ENDBRANCH   1   2
BRANCH   1   8
ATOM      8  C   UNL     1      24.587  30.563  14.829  1.00  0.00    -0.012 A 
ATOM      9  C   UNL     1      24.574  30.608  13.457  1.00  0.00     0.007 A 
ATOM     10  C   UNL     1      23.835  29.618  15.532  1.00  0.00     0.023 A 
ATOM     11  C   UNL     1      23.808  29.707  12.753  1.00  0.00     0.000 A 
ATOM     12  C   UNL     1      23.070  28.720  14.821  1.00  0.00     0.016 A 
ATOM     13  Br  UNL     1      23.927  29.647  17.432  1.00  0.00    -0.050 Br
ATOM     14  C   UNL     1      23.071  28.780  13.462  1.00  0.00     0.001 A 
ENDBRANCH   1   8
TORSDOF 2
BEGIN_RES LYS A 135
REMARK  4 active torsions:
REMARK  status: ('A' for Active; 'I' for Inactive)
REMARK    1  A    between atoms: CA   and  CB  
REMARK    2  A    between atoms: CB   and  CG  
REMARK    3  A    between atoms: CG   and  CD  
REMARK    4  A    between atoms: CD   and  CE  
ROOT
ATOM      1  CA  LYS A 135      33.193  34.663   9.290  1.00 25.02     0.186 C 
ENDROOT
BRANCH   1   2
ATOM      2  CB  LYS A 135      32.060  35.360  10.034  1.00 26.63     0.034 C 
BRANCH   2   3
ATOM      3  CG  LYS A 135      30.793  35.481   9.226  1.00 29.45     0.005 C 
BRANCH   3   4
ATOM      4  CD  LYS A 135      30.081  34.140   9.142  1.00 32.00     0.041 C 
BRANCH   4   5
ATOM      5  CE  LYS A 135      28.615  34.336   8.807  1.00 34.25     0.338 C 
ATOM      6  NZ  LYS A 135      27.744  33.576   9.746  1.00 35.99     0.618 N 
ENDBRANCH   4   5
ENDBRANCH   3   4
ENDBRANCH   2   3
ENDBRANCH   1   2
END_RES LYS A 135
BEGIN_RES TYR A 136
REMARK  2 active torsions:
REMARK  status: ('A' for Active; 'I' for Inactive)
REMARK    5  A    between atoms: CA   and  CB  
REMARK    6  A    between atoms: CB   and  CG  
ROOT
ATOM      7  CA  TYR A 136      36.583  36.399   8.994  1.00 26.14     0.191 C 
ENDROOT
BRANCH   7   8
ATOM      8  CB  TYR A 136      37.367  36.835  10.240  1.00 28.16     0.060 C 
BRANCH   8   9
ATOM      9  CG  TYR A 136      37.199  38.303  10.547  1.00 31.88    -0.020 A 
ATOM     10  CD2 TYR A 136      36.051  38.781  11.184  1.00 32.67    -0.002 A 
ATOM     11  CE2 TYR A 136      35.904  40.147  11.463  1.00 33.89     0.027 A 
ATOM     12  CZ  TYR A 136      36.914  41.042  11.102  1.00 34.34     0.131 A 
ATOM     13  OH  TYR A 136      36.793  42.397  11.375  1.00 35.14    -0.190 OA
ATOM     14  CE1 TYR A 136      38.060  40.584  10.468  1.00 35.01     0.027 A 
ATOM     15  CD1 TYR A 136      38.193  39.222  10.189  1.00 33.57    -0.002 A 
ENDBRANCH   8   9
ENDBRANCH   7   8
END_RES TYR A 136
BEGIN_RES ASN A 133
REMARK  2 active torsions:
REMARK  status: ('A' for Active; 'I' for Inactive)
REMARK    7  A    between atoms: CA   and  CB  
REMARK    8  A    between atoms: CB   and  CG  
ROOT
ATOM     16  CA  ASN A 133      31.225  30.257  11.749  1.00 18.15     0.196 C 
ENDROOT
BRANCH  16  17
ATOM     17  CB  ASN A 133      30.092  31.240  11.460  1.00 18.27     0.126 C 
BRANCH  17  18
ATOM     18  CG  ASN A 133      28.740  30.598  11.450  1.00 18.94     0.276 C 
ATOM     19  OD1 ASN A 133      27.859  30.950  12.237  1.00 18.09    -0.269 OA
ATOM     20  ND2 ASN A 133      28.559  29.634  10.547  1.00 18.93    -0.107 N 
ENDBRANCH  17  18
ENDBRANCH  16  17
END_RES ASN A 133
