REMARK VINA RESULT:    -4.643      2.696      4.453
REMARK INTER + INTRA:          -8.460
REMARK INTER:                  -5.370
REMARK INTRA:                  -3.090
REMARK UNBOUND:                -3.139
REMARK SMILES Cc1cn(-c2cccc(S(N)(=O)=O)c2)nn1
REMARK SMILES IDX 5 1 14 2 9 3 8 4 7 5 6 6 4 7 1 8 2 9 3 10 16 11 15 12 10 13
REMARK SMILES IDX 12 14 13 15 11 16
REMARK H PARENT 11 17 11 18
REMARK Flexibility Score: inf
ROOT
ATOM      1  C   UNL     1      34.427  35.225  13.267  1.00  0.00     0.068 A 
ATOM      2  C   UNL     1      33.465  34.550  13.996  1.00  0.00     0.050 A 
ATOM      3  C   UNL     1      32.150  34.963  14.028  1.00  0.00     0.084 A 
ATOM      4  C   UNL     1      31.744  36.084  13.319  1.00  0.00     0.022 A 
ATOM      5  C   UNL     1      32.686  36.773  12.585  1.00  0.00     0.004 A 
ATOM      6  C   UNL     1      34.002  36.336  12.570  1.00  0.00     0.028 A 
ENDROOT
BRANCH   1   7
ATOM      7  N   UNL     1      35.779  34.776  13.252  1.00  0.00    -0.220 N 
ATOM      8  C   UNL     1      39.289  34.702  14.357  1.00  0.00     0.070 C 
ATOM      9  C   UNL     1      37.948  34.534  13.730  1.00  0.00     0.080 A 
ATOM     10  C   UNL     1      36.782  35.208  14.043  1.00  0.00     0.140 A 
ATOM     11  N   UNL     1      37.613  33.694  12.738  1.00  0.00    -0.135 NA
ATOM     12  N   UNL     1      36.328  33.857  12.476  1.00  0.00    -0.062 NA
ENDBRANCH   1   7
BRANCH   3  13
ATOM     13  S   UNL     1      31.019  34.035  14.984  1.00  0.00     0.238 S 
ATOM     14  O   UNL     1      29.906  34.895  15.506  1.00  0.00    -0.207 OA
ATOM     15  O   UNL     1      31.768  33.437  16.139  1.00  0.00    -0.207 OA
BRANCH  13  16
ATOM     16  N   UNL     1      30.384  32.751  14.033  1.00  0.00    -0.225 NA
ATOM     17  H   UNL     1      29.660  32.190  14.554  1.00  0.00     0.137 HD
ATOM     18  H   UNL     1      31.170  32.110  13.777  1.00  0.00     0.137 HD
ENDBRANCH  13  16
ENDBRANCH   3  13
TORSDOF 3
BEGIN_RES LYS A 135
REMARK  4 active torsions:
REMARK  status: ('A' for Active; 'I' for Inactive)
REMARK    1  A    between atoms: CA   and  CB  
REMARK    2  A    between atoms: CB   and  CG  
REMARK    3  A    between atoms: CG   and  CD  
REMARK    4  A    between atoms: CD   and  CE  
ROOT
ATOM      1  CA  LYS A 135      33.193  34.663   9.290  1.00 25.02     0.186 C 
ENDROOT
BRANCH   1   2
ATOM      2  CB  LYS A 135      32.060  35.360  10.034  1.00 26.63     0.034 C 
BRANCH   2   3
ATOM      3  CG  LYS A 135      30.766  34.587  10.022  1.00 29.45     0.005 C 
BRANCH   3   4
ATOM      4  CD  LYS A 135      30.335  34.284   8.595  1.00 32.00     0.041 C 
BRANCH   4   5
ATOM      5  CE  LYS A 135      28.859  34.579   8.411  1.00 34.25     0.338 C 
ATOM      6  NZ  LYS A 135      28.033  33.805   9.378  1.00 35.99     0.618 N 
ENDBRANCH   4   5
ENDBRANCH   3   4
ENDBRANCH   2   3
ENDBRANCH   1   2
END_RES LYS A 135
BEGIN_RES TYR A 136
REMARK  2 active torsions:
REMARK  status: ('A' for Active; 'I' for Inactive)
REMARK    5  A    between atoms: CA   and  CB  
REMARK    6  A    between atoms: CB   and  CG  
ROOT
ATOM      7  CA  TYR A 136      36.583  36.399   8.994  1.00 26.14     0.191 C 
ENDROOT
BRANCH   7   8
ATOM      8  CB  TYR A 136      37.367  36.835  10.240  1.00 28.16     0.060 C 
BRANCH   8   9
ATOM      9  CG  TYR A 136      36.753  38.033  10.922  1.00 31.88    -0.020 A 
ATOM     10  CD2 TYR A 136      35.850  38.862  10.253  1.00 32.67    -0.002 A 
ATOM     11  CE2 TYR A 136      35.286  39.973  10.895  1.00 33.89     0.027 A 
ATOM     12  CZ  TYR A 136      35.630  40.257  12.219  1.00 34.34     0.131 A 
ATOM     13  OH  TYR A 136      35.079  41.348  12.878  1.00 35.14    -0.190 OA
ATOM     14  CE1 TYR A 136      36.527  39.445  12.899  1.00 35.01     0.027 A 
ATOM     15  CD1 TYR A 136      37.086  38.345  12.247  1.00 33.57    -0.002 A 
ENDBRANCH   8   9
ENDBRANCH   7   8
END_RES TYR A 136
BEGIN_RES ASN A 133
REMARK  2 active torsions:
REMARK  status: ('A' for Active; 'I' for Inactive)
REMARK    7  A    between atoms: CA   and  CB  
REMARK    8  A    between atoms: CB   and  CG  
ROOT
ATOM     16  CA  ASN A 133      31.225  30.257  11.749  1.00 18.15     0.196 C 
ENDROOT
BRANCH  16  17
ATOM     17  CB  ASN A 133      30.092  31.240  11.460  1.00 18.27     0.126 C 
BRANCH  17  18
ATOM     18  CG  ASN A 133      28.751  30.583  11.356  1.00 18.94     0.276 C 
ATOM     19  OD1 ASN A 133      28.579  29.592  10.644  1.00 18.09    -0.269 OA
ATOM     20  ND2 ASN A 133      27.774  31.136  12.074  1.00 18.93    -0.107 N 
ENDBRANCH  17  18
ENDBRANCH  16  17
END_RES ASN A 133
