REMARK VINA RESULT:    -3.315      7.521     12.328
REMARK INTER + INTRA:          -6.630
REMARK INTER:                  -3.487
REMARK INTRA:                  -3.142
REMARK UNBOUND:                -3.121
REMARK SMILES Cc1cn(-c2cccnc2)nn1
REMARK SMILES IDX 1 1 2 2 3 3 4 4 11 5 12 6 5 7 6 8 10 9 7 10 9 11 8 12
REMARK H PARENT
REMARK Flexibility Score: inf
ROOT
ATOM      1  C   UNL     1      27.368  28.915  19.230  1.00  0.00     0.070 C 
ATOM      2  C   UNL     1      27.771  29.514  17.929  1.00  0.00     0.080 A 
ATOM      3  C   UNL     1      28.638  30.567  17.732  1.00  0.00     0.140 A 
ATOM      4  N   UNL     1      28.753  30.823  16.413  1.00  0.00    -0.219 N 
ATOM      5  N   UNL     1      27.971  29.942  15.809  1.00  0.00    -0.062 NA
ATOM      6  N   UNL     1      27.376  29.154  16.685  1.00  0.00    -0.135 NA
ENDROOT
BRANCH   4   7
ATOM      7  C   UNL     1      29.558  31.837  15.828  1.00  0.00     0.085 A 
ATOM      8  C   UNL     1      30.876  32.015  16.183  1.00  0.00     0.031 A 
ATOM      9  C   UNL     1      29.006  32.666  14.876  1.00  0.00     0.139 A 
ATOM     10  C   UNL     1      31.643  33.004  15.604  1.00  0.00     0.022 A 
ATOM     11  N   UNL     1      29.761  33.647  14.299  1.00  0.00    -0.262 NA
ATOM     12  C   UNL     1      31.046  33.809  14.657  1.00  0.00     0.111 A 
ENDBRANCH   4   7
TORSDOF 1
BEGIN_RES LYS A 135
REMARK  4 active torsions:
REMARK  status: ('A' for Active; 'I' for Inactive)
REMARK    1  A    between atoms: CA   and  CB  
REMARK    2  A    between atoms: CB   and  CG  
REMARK    3  A    between atoms: CG   and  CD  
REMARK    4  A    between atoms: CD   and  CE  
ROOT
ATOM      1  CA  LYS A 135      33.193  34.663   9.290  1.00 25.02     0.186 C 
ENDROOT
BRANCH   1   2
ATOM      2  CB  LYS A 135      32.060  35.360  10.034  1.00 26.63     0.034 C 
BRANCH   2   3
ATOM      3  CG  LYS A 135      30.702  34.769   9.754  1.00 29.45     0.005 C 
BRANCH   3   4
ATOM      4  CD  LYS A 135      30.524  34.515   8.265  1.00 32.00     0.041 C 
BRANCH   4   5
ATOM      5  CE  LYS A 135      29.121  34.887   7.825  1.00 34.25     0.338 C 
ATOM      6  NZ  LYS A 135      28.101  34.321   8.752  1.00 35.99     0.618 N 
ENDBRANCH   4   5
ENDBRANCH   3   4
ENDBRANCH   2   3
ENDBRANCH   1   2
END_RES LYS A 135
BEGIN_RES TYR A 136
REMARK  2 active torsions:
REMARK  status: ('A' for Active; 'I' for Inactive)
REMARK    5  A    between atoms: CA   and  CB  
REMARK    6  A    between atoms: CB   and  CG  
ROOT
ATOM      7  CA  TYR A 136      36.583  36.399   8.994  1.00 26.14     0.191 C 
ENDROOT
BRANCH   7   8
ATOM      8  CB  TYR A 136      37.367  36.835  10.240  1.00 28.16     0.060 C 
BRANCH   8   9
ATOM      9  CG  TYR A 136      37.177  38.297  10.563  1.00 31.88    -0.020 A 
ATOM     10  CD2 TYR A 136      37.528  38.813  11.812  1.00 32.67    -0.002 A 
ATOM     11  CE2 TYR A 136      37.347  40.172  12.103  1.00 33.89     0.027 A 
ATOM     12  CZ  TYR A 136      36.808  41.022  11.134  1.00 34.34     0.131 A 
ATOM     13  OH  TYR A 136      36.626  42.373  11.397  1.00 35.14    -0.190 OA
ATOM     14  CE1 TYR A 136      36.453  40.526   9.888  1.00 35.01     0.027 A 
ATOM     15  CD1 TYR A 136      36.632  39.170   9.612  1.00 33.57    -0.002 A 
ENDBRANCH   8   9
ENDBRANCH   7   8
END_RES TYR A 136
BEGIN_RES ASN A 133
REMARK  2 active torsions:
REMARK  status: ('A' for Active; 'I' for Inactive)
REMARK    7  A    between atoms: CA   and  CB  
REMARK    8  A    between atoms: CB   and  CG  
ROOT
ATOM     16  CA  ASN A 133      31.225  30.257  11.749  1.00 18.15     0.196 C 
ENDROOT
BRANCH  16  17
ATOM     17  CB  ASN A 133      30.092  31.240  11.460  1.00 18.27     0.126 C 
BRANCH  17  18
ATOM     18  CG  ASN A 133      28.763  30.575  11.281  1.00 18.94     0.276 C 
ATOM     19  OD1 ASN A 133      28.637  29.584  10.558  1.00 18.09    -0.269 OA
ATOM     20  ND2 ASN A 133      27.744  31.120  11.944  1.00 18.93    -0.107 N 
ENDBRANCH  17  18
ENDBRANCH  16  17
END_RES ASN A 133
