REMARK VINA RESULT:    -2.419      2.065      2.707
REMARK INTER + INTRA:          -5.745
REMARK INTER:                  -3.261
REMARK INTRA:                  -2.483
REMARK UNBOUND:                -2.973
REMARK SMILES Cc1cn(CCO)nn1
REMARK SMILES IDX 5 1 4 2 1 3 2 4 3 5 9 6 8 7 6 8 7 9
REMARK H PARENT 7 10
REMARK Flexibility Score: inf
ROOT
ATOM      1  C   UNL     1      35.529  35.964  13.386  1.00  0.00     0.174 C 
ENDROOT
BRANCH   1   2
ATOM      2  N   UNL     1      34.752  37.159  13.130  1.00  0.00    -0.250 N 
ATOM      3  C   UNL     1      32.137  38.909  11.260  1.00  0.00     0.070 C 
ATOM      4  C   UNL     1      33.227  38.444  12.159  1.00  0.00     0.080 A 
ATOM      5  C   UNL     1      33.801  37.190  12.180  1.00  0.00     0.134 A 
ATOM      6  N   UNL     1      33.881  39.119  13.124  1.00  0.00    -0.136 NA
ATOM      7  N   UNL     1      34.782  38.333  13.686  1.00  0.00    -0.067 NA
ENDBRANCH   1   2
BRANCH   1   8
ATOM      8  C   UNL     1      34.651  34.762  13.642  1.00  0.00     0.179 C 
BRANCH   8   9
ATOM      9  O   UNL     1      35.080  33.673  12.862  1.00  0.00    -0.394 OA
ATOM     10  H   UNL     1      35.994  33.436  13.163  1.00  0.00     0.210 HD
ENDBRANCH   8   9
ENDBRANCH   1   8
TORSDOF 3
BEGIN_RES LYS A 135
REMARK  4 active torsions:
REMARK  status: ('A' for Active; 'I' for Inactive)
REMARK    1  A    between atoms: CA   and  CB  
REMARK    2  A    between atoms: CB   and  CG  
REMARK    3  A    between atoms: CG   and  CD  
REMARK    4  A    between atoms: CD   and  CE  
ROOT
ATOM      1  CA  LYS A 135      33.193  34.663   9.290  1.00 25.02     0.186 C 
ENDROOT
BRANCH   1   2
ATOM      2  CB  LYS A 135      32.060  35.360  10.034  1.00 26.63     0.034 C 
BRANCH   2   3
ATOM      3  CG  LYS A 135      30.715  35.197   9.373  1.00 29.45     0.005 C 
BRANCH   3   4
ATOM      4  CD  LYS A 135      30.048  36.549   9.175  1.00 32.00     0.041 C 
BRANCH   4   5
ATOM      5  CE  LYS A 135      29.227  36.556   7.900  1.00 34.25     0.338 C 
ATOM      6  NZ  LYS A 135      29.202  35.207   7.270  1.00 35.99     0.618 N 
ENDBRANCH   4   5
ENDBRANCH   3   4
ENDBRANCH   2   3
ENDBRANCH   1   2
END_RES LYS A 135
BEGIN_RES TYR A 136
REMARK  2 active torsions:
REMARK  status: ('A' for Active; 'I' for Inactive)
REMARK    5  A    between atoms: CA   and  CB  
REMARK    6  A    between atoms: CB   and  CG  
ROOT
ATOM      7  CA  TYR A 136      36.583  36.399   8.994  1.00 26.14     0.191 C 
ENDROOT
BRANCH   7   8
ATOM      8  CB  TYR A 136      37.367  36.835  10.240  1.00 28.16     0.060 C 
BRANCH   8   9
ATOM      9  CG  TYR A 136      37.083  38.264  10.634  1.00 31.88    -0.020 A 
ATOM     10  CD2 TYR A 136      36.159  39.038   9.929  1.00 32.67    -0.002 A 
ATOM     11  CE2 TYR A 136      35.903  40.365  10.302  1.00 33.89     0.027 A 
ATOM     12  CZ  TYR A 136      36.579  40.922  11.390  1.00 34.34     0.131 A 
ATOM     13  OH  TYR A 136      36.337  42.231  11.782  1.00 35.14    -0.190 OA
ATOM     14  CE1 TYR A 136      37.501  40.167  12.101  1.00 35.01     0.027 A 
ATOM     15  CD1 TYR A 136      37.752  38.849  11.716  1.00 33.57    -0.002 A 
ENDBRANCH   8   9
ENDBRANCH   7   8
END_RES TYR A 136
BEGIN_RES ASN A 133
REMARK  2 active torsions:
REMARK  status: ('A' for Active; 'I' for Inactive)
REMARK    7  A    between atoms: CA   and  CB  
REMARK    8  A    between atoms: CB   and  CG  
ROOT
ATOM     16  CA  ASN A 133      31.225  30.257  11.749  1.00 18.15     0.196 C 
ENDROOT
BRANCH  16  17
ATOM     17  CB  ASN A 133      30.092  31.240  11.460  1.00 18.27     0.126 C 
BRANCH  17  18
ATOM     18  CG  ASN A 133      28.752  30.582  11.347  1.00 18.94     0.276 C 
ATOM     19  OD1 ASN A 133      28.578  29.609  10.611  1.00 18.09    -0.269 OA
ATOM     20  ND2 ASN A 133      27.778  31.113  12.085  1.00 18.93    -0.107 N 
ENDBRANCH  17  18
ENDBRANCH  16  17
END_RES ASN A 133
