REMARK VINA RESULT:    -6.077      3.077      6.627
REMARK INTER + INTRA:         -11.098
REMARK INTER:                  -7.591
REMARK INTRA:                  -3.508
REMARK UNBOUND:                -3.778
REMARK SMILES Cc1cn(-c2ccc(-c3c4ccc(=O)cc-4oc4cc(O)ccc34)c(C(=O)[O-])c2)nn1
REMARK SMILES IDX 9 1 24 2 23 3 22 4 20 5 19 6 18 7 17 8 16 9 15 10 13 11
REMARK SMILES IDX 14 12 12 13 11 14 10 15 8 16 5 17 29 18 6 19 25 20 7 21 4 22
REMARK SMILES IDX 1 23 2 24 3 25 31 26 30 27 26 28 27 29 28 30 21 31
REMARK H PARENT 21 32
REMARK Flexibility Score: inf
ROOT
ATOM      1  C   UNL     1      36.694  36.802  14.053  1.00  0.00     0.004 A 
ATOM      2  C   UNL     1      37.666  35.910  13.656  1.00  0.00     0.026 A 
ATOM      3  C   UNL     1      37.334  34.593  13.423  1.00  0.00     0.016 A 
ATOM      4  C   UNL     1      38.280  33.662  13.022  1.00  0.00     0.047 A 
ATOM      5  C   UNL     1      39.580  34.089  12.860  1.00  0.00     0.119 A 
ATOM      6  C   UNL     1      39.914  35.406  13.093  1.00  0.00     0.093 A 
ATOM      7  C   UNL     1      38.971  36.354  13.496  1.00  0.00     0.139 A 
ATOM      8  O   UNL     1      39.324  37.601  13.709  1.00  0.00    -0.456 OA
ATOM      9  C   UNL     1      38.483  38.512  14.084  1.00  0.00     0.139 A 
ATOM     10  C   UNL     1      38.816  39.826  14.315  1.00  0.00     0.099 A 
ATOM     11  C   UNL     1      37.830  40.700  14.711  1.00  0.00     0.182 A 
ATOM     12  O   UNL     1      38.144  41.898  14.921  1.00  0.00    -0.290 OA
ATOM     13  C   UNL     1      36.515  40.309  14.885  1.00  0.00     0.053 A 
ATOM     14  C   UNL     1      36.111  39.010  14.670  1.00  0.00     0.016 A 
ATOM     15  C   UNL     1      37.083  38.106  14.271  1.00  0.00     0.026 A 
ENDROOT
BRANCH   1  16
ATOM     16  C   UNL     1      35.335  36.331  14.217  1.00  0.00    -0.008 A 
ATOM     17  C   UNL     1      32.724  35.415  14.606  1.00  0.00     0.067 A 
ATOM     18  C   UNL     1      33.572  35.555  15.684  1.00  0.00     0.039 A 
ATOM     19  C   UNL     1      33.167  35.730  13.330  1.00  0.00     0.029 A 
ATOM     20  C   UNL     1      34.861  36.009  15.471  1.00  0.00     0.007 A 
ATOM     21  C   UNL     1      34.464  36.182  13.152  1.00  0.00     0.012 A 
BRANCH  17  22
ATOM     22  N   UNL     1      31.389  34.953  14.763  1.00  0.00    -0.220 N 
ATOM     23  C   UNL     1      28.901  32.283  15.253  1.00  0.00     0.070 C 
ATOM     24  C   UNL     1      29.682  33.540  15.054  1.00  0.00     0.080 A 
ATOM     25  C   UNL     1      31.052  33.640  14.933  1.00  0.00     0.140 A 
ATOM     26  N   UNL     1      29.226  34.801  14.955  1.00  0.00    -0.135 NA
ATOM     27  N   UNL     1      30.266  35.615  14.782  1.00  0.00    -0.062 NA
ENDBRANCH  17  22
BRANCH  20  28
ATOM     28  C   UNL     1      35.747  36.152  16.621  1.00  0.00     0.072 C 
ATOM     29  O   UNL     1      35.614  37.087  17.444  1.00  0.00    -0.545 OA
ATOM     30  O   UNL     1      36.774  35.248  16.848  1.00  0.00    -0.545 OA
ENDBRANCH  20  28
ENDBRANCH   1  16
BRANCH   5  31
ATOM     31  O   UNL     1      40.545  33.153  12.454  1.00  0.00    -0.508 OA
ATOM     32  H   UNL     1      40.764  32.365  13.047  1.00  0.00     0.293 HD
ENDBRANCH   5  31
TORSDOF 4
BEGIN_RES LYS A 135
REMARK  4 active torsions:
REMARK  status: ('A' for Active; 'I' for Inactive)
REMARK    1  A    between atoms: CA   and  CB  
REMARK    2  A    between atoms: CB   and  CG  
REMARK    3  A    between atoms: CG   and  CD  
REMARK    4  A    between atoms: CD   and  CE  
ROOT
ATOM      1  CA  LYS A 135      33.193  34.663   9.290  1.00 25.02     0.186 C 
ENDROOT
BRANCH   1   2
ATOM      2  CB  LYS A 135      32.060  35.360  10.034  1.00 26.63     0.034 C 
BRANCH   2   3
ATOM      3  CG  LYS A 135      30.833  35.584   9.189  1.00 29.45     0.005 C 
BRANCH   3   4
ATOM      4  CD  LYS A 135      30.291  34.262   8.668  1.00 32.00     0.041 C 
BRANCH   4   5
ATOM      5  CE  LYS A 135      28.887  34.020   9.187  1.00 34.25     0.338 C 
ATOM      6  NZ  LYS A 135      27.870  34.652   8.301  1.00 35.99     0.618 N 
ENDBRANCH   4   5
ENDBRANCH   3   4
ENDBRANCH   2   3
ENDBRANCH   1   2
END_RES LYS A 135
BEGIN_RES TYR A 136
REMARK  2 active torsions:
REMARK  status: ('A' for Active; 'I' for Inactive)
REMARK    5  A    between atoms: CA   and  CB  
REMARK    6  A    between atoms: CB   and  CG  
ROOT
ATOM      7  CA  TYR A 136      36.583  36.399   8.994  1.00 26.14     0.191 C 
ENDROOT
BRANCH   7   8
ATOM      8  CB  TYR A 136      37.367  36.835  10.240  1.00 28.16     0.060 C 
BRANCH   8   9
ATOM      9  CG  TYR A 136      37.158  38.291  10.577  1.00 31.88    -0.020 A 
ATOM     10  CD2 TYR A 136      35.891  38.783  10.902  1.00 32.67    -0.002 A 
ATOM     11  CE2 TYR A 136      35.707  40.137  11.212  1.00 33.89     0.027 A 
ATOM     12  CZ  TYR A 136      36.800  41.007  11.197  1.00 34.34     0.131 A 
ATOM     13  OH  TYR A 136      36.643  42.351  11.508  1.00 35.14    -0.190 OA
ATOM     14  CE1 TYR A 136      38.065  40.536  10.876  1.00 35.01     0.027 A 
ATOM     15  CD1 TYR A 136      38.235  39.186  10.562  1.00 33.57    -0.002 A 
ENDBRANCH   8   9
ENDBRANCH   7   8
END_RES TYR A 136
BEGIN_RES ASN A 133
REMARK  2 active torsions:
REMARK  status: ('A' for Active; 'I' for Inactive)
REMARK    7  A    between atoms: CA   and  CB  
REMARK    8  A    between atoms: CB   and  CG  
ROOT
ATOM     16  CA  ASN A 133      31.225  30.257  11.749  1.00 18.15     0.196 C 
ENDROOT
BRANCH  16  17
ATOM     17  CB  ASN A 133      30.092  31.240  11.460  1.00 18.27     0.126 C 
BRANCH  17  18
ATOM     18  CG  ASN A 133      28.759  30.577  11.304  1.00 18.94     0.276 C 
ATOM     19  OD1 ASN A 133      28.615  29.597  10.570  1.00 18.09    -0.269 OA
ATOM     20  ND2 ASN A 133      27.756  31.112  12.000  1.00 18.93    -0.107 N 
ENDBRANCH  17  18
ENDBRANCH  16  17
END_RES ASN A 133
