REMARK VINA RESULT:    -6.289      1.982      4.227
REMARK INTER + INTRA:          -8.783
REMARK INTER:                  -5.258
REMARK INTRA:                  -3.524
REMARK UNBOUND:                -1.391
REMARK SMILES Cc1cn(C(c2ccccc2)c2ccccc2)nn1
REMARK SMILES IDX 5 1 4 2 1 3 2 4 3 5 19 6 18 7 6 8 7 9 11 10 8 11 10 12 9 13
REMARK SMILES IDX 12 14 13 15 17 16 14 17 16 18 15 19
REMARK H PARENT
REMARK Flexibility Score: inf
ROOT
ATOM      1  C   UNL     1      35.320  36.100  14.279  1.00  0.00     0.169 C 
ENDROOT
BRANCH   1   2
ATOM      2  N   UNL     1      33.902  35.780  14.133  1.00  0.00    -0.240 N 
ATOM      3  C   UNL     1      30.401  36.303  13.222  1.00  0.00     0.070 C 
ATOM      4  C   UNL     1      31.731  35.872  13.666  1.00  0.00     0.080 A 
ATOM      5  C   UNL     1      32.937  36.561  13.613  1.00  0.00     0.135 A 
ATOM      6  N   UNL     1      32.031  34.686  14.227  1.00  0.00    -0.136 NA
ATOM      7  N   UNL     1      33.320  34.653  14.495  1.00  0.00    -0.066 NA
ENDBRANCH   1   2
BRANCH   1   8
ATOM      8  C   UNL     1      36.211  35.006  13.837  1.00  0.00    -0.019 A 
ATOM      9  C   UNL     1      37.212  34.485  14.611  1.00  0.00     0.006 A 
ATOM     10  C   UNL     1      36.050  34.445  12.572  1.00  0.00     0.006 A 
ATOM     11  C   UNL     1      38.013  33.444  14.127  1.00  0.00     0.000 A 
ATOM     12  C   UNL     1      36.834  33.425  12.096  1.00  0.00     0.000 A 
ATOM     13  C   UNL     1      37.832  32.910  12.875  1.00  0.00     0.000 A 
ENDBRANCH   1   8
BRANCH   1  14
ATOM     14  C   UNL     1      35.626  36.638  15.605  1.00  0.00    -0.019 A 
ATOM     15  C   UNL     1      35.136  36.128  16.787  1.00  0.00     0.006 A 
ATOM     16  C   UNL     1      36.474  37.724  15.726  1.00  0.00     0.006 A 
ATOM     17  C   UNL     1      35.476  36.673  17.988  1.00  0.00     0.000 A 
ATOM     18  C   UNL     1      36.834  38.293  16.928  1.00  0.00     0.000 A 
ATOM     19  C   UNL     1      36.322  37.752  18.067  1.00  0.00     0.000 A 
ENDBRANCH   1  14
TORSDOF 3
BEGIN_RES LYS A 135
REMARK  4 active torsions:
REMARK  status: ('A' for Active; 'I' for Inactive)
REMARK    1  A    between atoms: CA   and  CB  
REMARK    2  A    between atoms: CB   and  CG  
REMARK    3  A    between atoms: CG   and  CD  
REMARK    4  A    between atoms: CD   and  CE  
ROOT
ATOM      1  CA  LYS A 135      33.193  34.663   9.290  1.00 25.02     0.186 C 
ENDROOT
BRANCH   1   2
ATOM      2  CB  LYS A 135      32.060  35.360  10.034  1.00 26.63     0.034 C 
BRANCH   2   3
ATOM      3  CG  LYS A 135      30.706  34.749   9.779  1.00 29.45     0.005 C 
BRANCH   3   4
ATOM      4  CD  LYS A 135      30.470  34.571   8.287  1.00 32.00     0.041 C 
BRANCH   4   5
ATOM      5  CE  LYS A 135      29.027  34.877   7.936  1.00 34.25     0.338 C 
ATOM      6  NZ  LYS A 135      28.930  35.576   6.625  1.00 35.99     0.618 N 
ENDBRANCH   4   5
ENDBRANCH   3   4
ENDBRANCH   2   3
ENDBRANCH   1   2
END_RES LYS A 135
BEGIN_RES TYR A 136
REMARK  2 active torsions:
REMARK  status: ('A' for Active; 'I' for Inactive)
REMARK    5  A    between atoms: CA   and  CB  
REMARK    6  A    between atoms: CB   and  CG  
ROOT
ATOM      7  CA  TYR A 136      36.583  36.399   8.994  1.00 26.14     0.191 C 
ENDROOT
BRANCH   7   8
ATOM      8  CB  TYR A 136      37.367  36.835  10.240  1.00 28.16     0.060 C 
BRANCH   8   9
ATOM      9  CG  TYR A 136      36.882  38.150  10.800  1.00 31.88    -0.020 A 
ATOM     10  CD2 TYR A 136      37.149  38.515  12.121  1.00 32.67    -0.002 A 
ATOM     11  CE2 TYR A 136      36.692  39.738  12.632  1.00 33.89     0.027 A 
ATOM     12  CZ  TYR A 136      35.962  40.603  11.814  1.00 34.34     0.131 A 
ATOM     13  OH  TYR A 136      35.506  41.821  12.296  1.00 35.14    -0.190 OA
ATOM     14  CE1 TYR A 136      35.687  40.255  10.499  1.00 35.01     0.027 A 
ATOM     15  CD1 TYR A 136      36.141  39.032  10.003  1.00 33.57    -0.002 A 
ENDBRANCH   8   9
ENDBRANCH   7   8
END_RES TYR A 136
BEGIN_RES ASN A 133
REMARK  2 active torsions:
REMARK  status: ('A' for Active; 'I' for Inactive)
REMARK    7  A    between atoms: CA   and  CB  
REMARK    8  A    between atoms: CB   and  CG  
ROOT
ATOM     16  CA  ASN A 133      31.225  30.257  11.749  1.00 18.15     0.196 C 
ENDROOT
BRANCH  16  17
ATOM     17  CB  ASN A 133      30.092  31.240  11.460  1.00 18.27     0.126 C 
BRANCH  17  18
ATOM     18  CG  ASN A 133      28.751  30.582  11.351  1.00 18.94     0.276 C 
ATOM     19  OD1 ASN A 133      28.577  29.606  10.618  1.00 18.09    -0.269 OA
ATOM     20  ND2 ASN A 133      27.778  31.118  12.086  1.00 18.93    -0.107 N 
ENDBRANCH  17  18
ENDBRANCH  16  17
END_RES ASN A 133
