REMARK VINA RESULT:    -4.610      1.766      3.950
REMARK INTER + INTRA:         -10.174
REMARK INTER:                  -7.142
REMARK INTRA:                  -3.032
REMARK UNBOUND:                -3.812
REMARK SMILES Cc1cn(C[C@@H](C(=O)O)C(c2ccccc2)c2ccccc2)nn1
REMARK SMILES IDX 6 1 5 2 4 3 1 4 2 5 3 6 24 7 23 8 7 9 8 10 9 11 10 13 11 14
REMARK SMILES IDX 12 15 16 16 13 17 15 18 14 19 17 20 18 21 22 22 19 23 21 24
REMARK SMILES IDX 20 25
REMARK H PARENT 9 12
REMARK Flexibility Score: inf
ROOT
ATOM      1  C   UNL     1      32.396  35.689  15.415  1.00  0.00     0.132 C 
ENDROOT
BRANCH   1   2
ATOM      2  C   UNL     1      32.672  34.249  15.131  1.00  0.00     0.162 C 
BRANCH   2   3
ATOM      3  N   UNL     1      31.451  33.484  15.045  1.00  0.00    -0.251 N 
ATOM      4  C   UNL     1      29.194  30.775  16.004  1.00  0.00     0.070 C 
ATOM      5  C   UNL     1      29.967  31.940  15.478  1.00  0.00     0.080 A 
ATOM      6  C   UNL     1      31.201  32.390  15.816  1.00  0.00     0.134 A 
ATOM      7  N   UNL     1      29.494  32.758  14.520  1.00  0.00    -0.136 NA
ATOM      8  N   UNL     1      30.392  33.674  14.275  1.00  0.00    -0.067 NA
ENDBRANCH   2   3
ENDBRANCH   1   2
BRANCH   1   9
ATOM      9  C   UNL     1      32.607  36.007  16.828  1.00  0.00     0.309 C 
ATOM     10  O   UNL     1      32.999  37.166  17.141  1.00  0.00    -0.252 OA
BRANCH   9  11
ATOM     11  O   UNL     1      32.385  35.060  17.840  1.00  0.00    -0.481 OA
ATOM     12  H   UNL     1      31.429  34.685  17.919  1.00  0.00     0.296 HD
ENDBRANCH   9  11
ENDBRANCH   1   9
BRANCH   1  13
ATOM     13  C   UNL     1      33.350  36.551  14.591  1.00  0.00     0.065 C 
BRANCH  13  14
ATOM     14  C   UNL     1      34.568  35.802  14.176  1.00  0.00    -0.040 A 
ATOM     15  C   UNL     1      34.620  34.949  13.100  1.00  0.00     0.004 A 
ATOM     16  C   UNL     1      35.713  35.995  14.943  1.00  0.00     0.004 A 
ATOM     17  C   UNL     1      35.808  34.301  12.802  1.00  0.00     0.000 A 
ATOM     18  C   UNL     1      36.886  35.333  14.621  1.00  0.00     0.000 A 
ATOM     19  C   UNL     1      36.937  34.487  13.554  1.00  0.00     0.000 A 
ENDBRANCH  13  14
BRANCH  13  20
ATOM     20  C   UNL     1      32.636  37.088  13.408  1.00  0.00    -0.040 A 
ATOM     21  C   UNL     1      33.339  37.615  12.343  1.00  0.00     0.004 A 
ATOM     22  C   UNL     1      31.262  37.069  13.325  1.00  0.00     0.004 A 
ATOM     23  C   UNL     1      32.750  38.119  11.210  1.00  0.00     0.000 A 
ATOM     24  C   UNL     1      30.637  37.572  12.191  1.00  0.00     0.000 A 
ATOM     25  C   UNL     1      31.362  38.083  11.163  1.00  0.00     0.000 A 
ENDBRANCH  13  20
ENDBRANCH   1  13
TORSDOF 7
BEGIN_RES LYS A 135
REMARK  4 active torsions:
REMARK  status: ('A' for Active; 'I' for Inactive)
REMARK    1  A    between atoms: CA   and  CB  
REMARK    2  A    between atoms: CB   and  CG  
REMARK    3  A    between atoms: CG   and  CD  
REMARK    4  A    between atoms: CD   and  CE  
ROOT
ATOM      1  CA  LYS A 135      33.193  34.663   9.290  1.00 25.02     0.186 C 
ENDROOT
BRANCH   1   2
ATOM      2  CB  LYS A 135      32.060  35.360  10.034  1.00 26.63     0.034 C 
BRANCH   2   3
ATOM      3  CG  LYS A 135      30.701  34.778   9.743  1.00 29.45     0.005 C 
BRANCH   3   4
ATOM      4  CD  LYS A 135      30.561  34.454   8.264  1.00 32.00     0.041 C 
BRANCH   4   5
ATOM      5  CE  LYS A 135      29.321  35.111   7.690  1.00 34.25     0.338 C 
ATOM      6  NZ  LYS A 135      28.879  36.254   8.535  1.00 35.99     0.618 N 
ENDBRANCH   4   5
ENDBRANCH   3   4
ENDBRANCH   2   3
ENDBRANCH   1   2
END_RES LYS A 135
BEGIN_RES TYR A 136
REMARK  2 active torsions:
REMARK  status: ('A' for Active; 'I' for Inactive)
REMARK    5  A    between atoms: CA   and  CB  
REMARK    6  A    between atoms: CB   and  CG  
ROOT
ATOM      7  CA  TYR A 136      36.583  36.399   8.994  1.00 26.14     0.191 C 
ENDROOT
BRANCH   7   8
ATOM      8  CB  TYR A 136      37.367  36.835  10.240  1.00 28.16     0.060 C 
BRANCH   8   9
ATOM      9  CG  TYR A 136      36.814  38.093  10.863  1.00 31.88    -0.020 A 
ATOM     10  CD2 TYR A 136      36.200  39.076  10.084  1.00 32.67    -0.002 A 
ATOM     11  CE2 TYR A 136      35.691  40.242  10.672  1.00 33.89     0.027 A 
ATOM     12  CZ  TYR A 136      35.797  40.426  12.053  1.00 34.34     0.131 A 
ATOM     13  OH  TYR A 136      35.293  41.569  12.658  1.00 35.14    -0.190 OA
ATOM     14  CE1 TYR A 136      36.404  39.459  12.842  1.00 35.01     0.027 A 
ATOM     15  CD1 TYR A 136      36.913  38.306  12.244  1.00 33.57    -0.002 A 
ENDBRANCH   8   9
ENDBRANCH   7   8
END_RES TYR A 136
BEGIN_RES ASN A 133
REMARK  2 active torsions:
REMARK  status: ('A' for Active; 'I' for Inactive)
REMARK    7  A    between atoms: CA   and  CB  
REMARK    8  A    between atoms: CB   and  CG  
ROOT
ATOM     16  CA  ASN A 133      31.225  30.257  11.749  1.00 18.15     0.196 C 
ENDROOT
BRANCH  16  17
ATOM     17  CB  ASN A 133      30.092  31.240  11.460  1.00 18.27     0.126 C 
BRANCH  17  18
ATOM     18  CG  ASN A 133      28.749  30.584  11.367  1.00 18.94     0.276 C 
ATOM     19  OD1 ASN A 133      27.811  30.946  12.080  1.00 18.09    -0.269 OA
ATOM     20  ND2 ASN A 133      28.642  29.599  10.477  1.00 18.93    -0.107 N 
ENDBRANCH  17  18
ENDBRANCH  16  17
END_RES ASN A 133
