REMARK VINA RESULT:    -4.555      4.061      7.384
REMARK INTER + INTRA:         -10.602
REMARK INTER:                  -6.065
REMARK INTRA:                  -4.536
REMARK UNBOUND:                -4.315
REMARK SMILES CCOCCc1c(-c2ccccc2)nc(N)nc1-n1cc(C)nn1
REMARK SMILES IDX 5 1 6 2 18 3 17 4 15 5 7 6 14 7 19 8 22 9 21 10 20 11 23 12
REMARK SMILES IDX 24 13 16 14 8 17 9 18 13 19 10 20 12 21 11 22 4 23 3 24 2 25
REMARK SMILES IDX 1 26
REMARK H PARENT 16 15 16 16
REMARK Flexibility Score: inf
ROOT
ATOM      1  C   UNL     1      40.641  35.583  14.931  1.00  0.00     0.070 C 
ENDROOT
BRANCH   1   2
ATOM      2  C   UNL     1      39.400  35.204  14.269  1.00  0.00     0.026 A 
ATOM      3  C   UNL     1      39.287  35.389  12.892  1.00  0.00     0.164 A 
ATOM      4  N   UNL     1      38.127  34.981  12.308  1.00  0.00    -0.193 NA
ATOM      5  C   UNL     1      37.109  34.426  12.951  1.00  0.00     0.222 A 
ATOM      6  C   UNL     1      38.358  34.635  14.944  1.00  0.00     0.081 A 
ATOM      7  N   UNL     1      37.217  34.248  14.279  1.00  0.00    -0.213 NA
BRANCH   3   8
ATOM      8  N   UNL     1      40.321  35.978  12.122  1.00  0.00    -0.202 N 
ATOM      9  C   UNL     1      43.301  36.141   9.983  1.00  0.00     0.070 C 
ATOM     10  C   UNL     1      42.101  36.359  10.831  1.00  0.00     0.080 A 
ATOM     11  C   UNL     1      41.308  35.378  11.445  1.00  0.00     0.142 A 
ATOM     12  N   UNL     1      41.525  37.524  11.188  1.00  0.00    -0.135 NA
ATOM     13  N   UNL     1      40.472  37.274  11.952  1.00  0.00    -0.061 NA
ENDBRANCH   3   8
BRANCH   5  14
ATOM     14  N   UNL     1      35.912  34.019  12.254  1.00  0.00    -0.368 N 
ATOM     15  H   UNL     1      35.472  34.683  11.602  1.00  0.00     0.159 HD
ATOM     16  H   UNL     1      35.484  33.086  12.386  1.00  0.00     0.159 HD
ENDBRANCH   5  14
BRANCH   6  17
ATOM     17  C   UNL     1      38.333  34.364  16.374  1.00  0.00     0.001 A 
ATOM     18  C   UNL     1      38.681  33.203  16.978  1.00  0.00     0.010 A 
ATOM     19  C   UNL     1      37.869  35.409  17.176  1.00  0.00     0.010 A 
ATOM     20  C   UNL     1      38.583  33.033  18.365  1.00  0.00     0.001 A 
ATOM     21  C   UNL     1      37.773  35.244  18.538  1.00  0.00     0.001 A 
ATOM     22  C   UNL     1      38.126  34.063  19.154  1.00  0.00     0.000 A 
ENDBRANCH   6  17
ENDBRANCH   1   2
BRANCH   1  23
ATOM     23  C   UNL     1      41.643  34.442  15.009  1.00  0.00     0.165 C 
BRANCH  23  24
ATOM     24  O   UNL     1      41.996  34.161  16.315  1.00  0.00    -0.381 OA
BRANCH  24  25
ATOM     25  C   UNL     1      41.870  35.302  17.104  1.00  0.00     0.156 C 
ATOM     26  C   UNL     1      41.771  34.932  18.578  1.00  0.00     0.035 C 
ENDBRANCH  24  25
ENDBRANCH  23  24
ENDBRANCH   1  23
TORSDOF 7
BEGIN_RES LYS A 135
REMARK  4 active torsions:
REMARK  status: ('A' for Active; 'I' for Inactive)
REMARK    1  A    between atoms: CA   and  CB  
REMARK    2  A    between atoms: CB   and  CG  
REMARK    3  A    between atoms: CG   and  CD  
REMARK    4  A    between atoms: CD   and  CE  
ROOT
ATOM      1  CA  LYS A 135      33.193  34.663   9.290  1.00 25.02     0.186 C 
ENDROOT
BRANCH   1   2
ATOM      2  CB  LYS A 135      32.060  35.360  10.034  1.00 26.63     0.034 C 
BRANCH   2   3
ATOM      3  CG  LYS A 135      30.734  34.655   9.909  1.00 29.45     0.005 C 
BRANCH   3   4
ATOM      4  CD  LYS A 135      30.348  34.492   8.447  1.00 32.00     0.041 C 
BRANCH   4   5
ATOM      5  CE  LYS A 135      28.842  34.550   8.284  1.00 34.25     0.338 C 
ATOM      6  NZ  LYS A 135      28.154  33.828   9.390  1.00 35.99     0.618 N 
ENDBRANCH   4   5
ENDBRANCH   3   4
ENDBRANCH   2   3
ENDBRANCH   1   2
END_RES LYS A 135
BEGIN_RES TYR A 136
REMARK  2 active torsions:
REMARK  status: ('A' for Active; 'I' for Inactive)
REMARK    5  A    between atoms: CA   and  CB  
REMARK    6  A    between atoms: CB   and  CG  
ROOT
ATOM      7  CA  TYR A 136      36.583  36.399   8.994  1.00 26.14     0.191 C 
ENDROOT
BRANCH   7   8
ATOM      8  CB  TYR A 136      37.367  36.835  10.240  1.00 28.16     0.060 C 
BRANCH   8   9
ATOM      9  CG  TYR A 136      36.915  38.173  10.771  1.00 31.88    -0.020 A 
ATOM     10  CD2 TYR A 136      36.994  38.475  12.133  1.00 32.67    -0.002 A 
ATOM     11  CE2 TYR A 136      36.570  39.720  12.616  1.00 33.89     0.027 A 
ATOM     12  CZ  TYR A 136      36.061  40.672  11.729  1.00 34.34     0.131 A 
ATOM     13  OH  TYR A 136      35.642  41.914  12.185  1.00 35.14    -0.190 OA
ATOM     14  CE1 TYR A 136      35.974  40.389  10.374  1.00 35.01     0.027 A 
ATOM     15  CD1 TYR A 136      36.394  39.143   9.905  1.00 33.57    -0.002 A 
ENDBRANCH   8   9
ENDBRANCH   7   8
END_RES TYR A 136
BEGIN_RES ASN A 133
REMARK  2 active torsions:
REMARK  status: ('A' for Active; 'I' for Inactive)
REMARK    7  A    between atoms: CA   and  CB  
REMARK    8  A    between atoms: CB   and  CG  
ROOT
ATOM     16  CA  ASN A 133      31.225  30.257  11.749  1.00 18.15     0.196 C 
ENDROOT
BRANCH  16  17
ATOM     17  CB  ASN A 133      30.092  31.240  11.460  1.00 18.27     0.126 C 
BRANCH  17  18
ATOM     18  CG  ASN A 133      28.757  30.578  11.314  1.00 18.94     0.276 C 
ATOM     19  OD1 ASN A 133      28.604  29.607  10.569  1.00 18.09    -0.269 OA
ATOM     20  ND2 ASN A 133      27.764  31.103  12.030  1.00 18.93    -0.107 N 
ENDBRANCH  17  18
ENDBRANCH  16  17
END_RES ASN A 133
