REMARK VINA RESULT:    -3.661      5.748      9.486
REMARK INTER + INTRA:          -7.562
REMARK INTER:                  -4.303
REMARK INTRA:                  -3.259
REMARK UNBOUND:                -3.259
REMARK SMILES Cc1cn(Cc2cccc(C#N)c2)nn1
REMARK SMILES IDX 6 1 7 2 8 3 9 4 10 5 13 6 5 7 4 8 1 9 2 10 3 11 15 12 14 13
REMARK SMILES IDX 11 14 12 15
REMARK H PARENT
REMARK Flexibility Score: inf
ROOT
ATOM      1  C   UNL     1      37.522  37.528   3.483  1.00  0.00    -0.025 A 
ATOM      2  C   UNL     1      36.982  37.678   2.229  1.00  0.00     0.006 A 
ATOM      3  C   UNL     1      35.752  38.265   2.003  1.00  0.00     0.002 A 
ATOM      4  C   UNL     1      35.041  38.717   3.096  1.00  0.00     0.019 A 
ATOM      5  C   UNL     1      35.542  38.588   4.375  1.00  0.00     0.052 A 
ATOM      6  C   UNL     1      36.790  37.990   4.559  1.00  0.00     0.025 A 
ENDROOT
BRANCH   1   7
ATOM      7  C   UNL     1      38.835  36.903   3.728  1.00  0.00     0.181 C 
BRANCH   7   8
ATOM      8  N   UNL     1      39.893  37.846   3.903  1.00  0.00    -0.248 N 
ATOM      9  C   UNL     1      42.762  39.166   5.723  1.00  0.00     0.070 C 
ATOM     10  C   UNL     1      41.635  38.849   4.788  1.00  0.00     0.080 A 
ATOM     11  C   UNL     1      40.763  37.809   4.928  1.00  0.00     0.134 A 
ATOM     12  N   UNL     1      41.282  39.510   3.670  1.00  0.00    -0.136 NA
ATOM     13  N   UNL     1      40.237  38.893   3.155  1.00  0.00    -0.067 NA
ENDBRANCH   7   8
ENDBRANCH   1   7
BRANCH   5  14
ATOM     14  C   UNL     1      34.751  39.081   5.465  1.00  0.00     0.099 C 
ATOM     15  N   UNL     1      34.099  39.479   6.330  1.00  0.00    -0.192 NA
ENDBRANCH   5  14
TORSDOF 3
BEGIN_RES LYS A 135
REMARK  4 active torsions:
REMARK  status: ('A' for Active; 'I' for Inactive)
REMARK    1  A    between atoms: CA   and  CB  
REMARK    2  A    between atoms: CB   and  CG  
REMARK    3  A    between atoms: CG   and  CD  
REMARK    4  A    between atoms: CD   and  CE  
ROOT
ATOM      1  CA  LYS A 135      33.193  34.663   9.290  1.00 25.02     0.186 C 
ENDROOT
BRANCH   1   2
ATOM      2  CB  LYS A 135      32.060  35.360  10.034  1.00 26.63     0.034 C 
BRANCH   2   3
ATOM      3  CG  LYS A 135      30.843  35.609   9.181  1.00 29.45     0.005 C 
BRANCH   3   4
ATOM      4  CD  LYS A 135      30.290  34.300   8.639  1.00 32.00     0.041 C 
BRANCH   4   5
ATOM      5  CE  LYS A 135      28.791  34.224   8.856  1.00 34.25     0.338 C 
ATOM      6  NZ  LYS A 135      28.058  34.986   7.808  1.00 35.99     0.618 N 
ENDBRANCH   4   5
ENDBRANCH   3   4
ENDBRANCH   2   3
ENDBRANCH   1   2
END_RES LYS A 135
BEGIN_RES TYR A 136
REMARK  2 active torsions:
REMARK  status: ('A' for Active; 'I' for Inactive)
REMARK    5  A    between atoms: CA   and  CB  
REMARK    6  A    between atoms: CB   and  CG  
ROOT
ATOM      7  CA  TYR A 136      36.583  36.399   8.994  1.00 26.14     0.191 C 
ENDROOT
BRANCH   7   8
ATOM      8  CB  TYR A 136      37.367  36.835  10.240  1.00 28.16     0.060 C 
BRANCH   8   9
ATOM      9  CG  TYR A 136      37.280  38.321  10.490  1.00 31.88    -0.020 A 
ATOM     10  CD2 TYR A 136      37.784  38.887  11.663  1.00 32.67    -0.002 A 
ATOM     11  CE2 TYR A 136      37.697  40.268  11.886  1.00 33.89     0.027 A 
ATOM     12  CZ  TYR A 136      37.100  41.090  10.926  1.00 34.34     0.131 A 
ATOM     13  OH  TYR A 136      37.009  42.461  11.123  1.00 35.14    -0.190 OA
ATOM     14  CE1 TYR A 136      36.593  40.543   9.756  1.00 35.01     0.027 A 
ATOM     15  CD1 TYR A 136      36.680  39.166   9.548  1.00 33.57    -0.002 A 
ENDBRANCH   8   9
ENDBRANCH   7   8
END_RES TYR A 136
BEGIN_RES ASN A 133
REMARK  2 active torsions:
REMARK  status: ('A' for Active; 'I' for Inactive)
REMARK    7  A    between atoms: CA   and  CB  
REMARK    8  A    between atoms: CB   and  CG  
ROOT
ATOM     16  CA  ASN A 133      31.225  30.257  11.749  1.00 18.15     0.196 C 
ENDROOT
BRANCH  16  17
ATOM     17  CB  ASN A 133      30.092  31.240  11.460  1.00 18.27     0.126 C 
BRANCH  17  18
ATOM     18  CG  ASN A 133      28.751  30.582  11.351  1.00 18.94     0.276 C 
ATOM     19  OD1 ASN A 133      28.578  29.603  10.622  1.00 18.09    -0.269 OA
ATOM     20  ND2 ASN A 133      27.776  31.121  12.082  1.00 18.93    -0.107 N 
ENDBRANCH  17  18
ENDBRANCH  16  17
END_RES ASN A 133
