REMARK VINA RESULT:    -4.674      3.967      7.838
REMARK INTER + INTRA:         -10.262
REMARK INTER:                  -7.600
REMARK INTRA:                  -2.662
REMARK UNBOUND:                -3.812
REMARK SMILES Cc1cn(C[C@@H](C(=O)O)C(c2ccccc2)c2ccccc2)nn1
REMARK SMILES IDX 6 1 5 2 4 3 1 4 2 5 3 6 24 7 23 8 7 9 8 10 9 11 10 13 11 14
REMARK SMILES IDX 12 15 16 16 13 17 15 18 14 19 17 20 18 21 22 22 19 23 21 24
REMARK SMILES IDX 20 25
REMARK H PARENT 9 12
REMARK Flexibility Score: inf
ROOT
ATOM      1  C   UNL     1      24.598  36.831   9.112  1.00  0.00     0.132 C 
ENDROOT
BRANCH   1   2
ATOM      2  C   UNL     1      24.102  37.223   7.759  1.00  0.00     0.162 C 
BRANCH   2   3
ATOM      3  N   UNL     1      23.373  38.469   7.805  1.00  0.00    -0.251 N 
ATOM      4  C   UNL     1      22.801  41.977   6.956  1.00  0.00     0.070 C 
ATOM      5  C   UNL     1      22.857  40.555   7.411  1.00  0.00     0.080 A 
ATOM      6  C   UNL     1      23.781  39.596   7.159  1.00  0.00     0.134 A 
ATOM      7  N   UNL     1      21.913  40.002   8.196  1.00  0.00    -0.136 NA
ATOM      8  N   UNL     1      22.238  38.757   8.420  1.00  0.00    -0.067 NA
ENDBRANCH   2   3
ENDBRANCH   1   2
BRANCH   1   9
ATOM      9  C   UNL     1      23.578  36.099   9.865  1.00  0.00     0.309 C 
ATOM     10  O   UNL     1      23.282  36.490  11.029  1.00  0.00    -0.252 OA
BRANCH   9  11
ATOM     11  O   UNL     1      22.923  34.980   9.329  1.00  0.00    -0.481 OA
ATOM     12  H   UNL     1      23.092  34.078   9.797  1.00  0.00     0.296 HD
ENDBRANCH   9  11
ENDBRANCH   1   9
BRANCH   1  13
ATOM     13  C   UNL     1      25.811  35.917   8.952  1.00  0.00     0.065 C 
BRANCH  13  14
ATOM     14  C   UNL     1      26.729  36.386   7.878  1.00  0.00    -0.040 A 
ATOM     15  C   UNL     1      26.934  37.707   7.560  1.00  0.00     0.004 A 
ATOM     16  C   UNL     1      27.413  35.404   7.167  1.00  0.00     0.004 A 
ATOM     17  C   UNL     1      27.814  38.032   6.540  1.00  0.00     0.000 A 
ATOM     18  C   UNL     1      28.287  35.761   6.153  1.00  0.00     0.000 A 
ATOM     19  C   UNL     1      28.489  37.071   5.837  1.00  0.00     0.000 A 
ENDBRANCH  13  14
BRANCH  13  20
ATOM     20  C   UNL     1      26.526  35.811  10.246  1.00  0.00    -0.040 A 
ATOM     21  C   UNL     1      26.975  34.588  10.702  1.00  0.00     0.004 A 
ATOM     22  C   UNL     1      26.777  36.919  11.024  1.00  0.00     0.004 A 
ATOM     23  C   UNL     1      27.654  34.412  11.882  1.00  0.00     0.000 A 
ATOM     24  C   UNL     1      27.462  36.774  12.223  1.00  0.00     0.000 A 
ATOM     25  C   UNL     1      27.888  35.553  12.640  1.00  0.00     0.000 A 
ENDBRANCH  13  20
ENDBRANCH   1  13
TORSDOF 7
BEGIN_RES LYS A 135
REMARK  4 active torsions:
REMARK  status: ('A' for Active; 'I' for Inactive)
REMARK    1  A    between atoms: CA   and  CB  
REMARK    2  A    between atoms: CB   and  CG  
REMARK    3  A    between atoms: CG   and  CD  
REMARK    4  A    between atoms: CD   and  CE  
ROOT
ATOM      1  CA  LYS A 135      33.193  34.663   9.290  1.00 25.02     0.186 C 
ENDROOT
BRANCH   1   2
ATOM      2  CB  LYS A 135      32.060  35.360  10.034  1.00 26.63     0.034 C 
BRANCH   2   3
ATOM      3  CG  LYS A 135      30.758  35.371   9.275  1.00 29.45     0.005 C 
BRANCH   3   4
ATOM      4  CD  LYS A 135      30.052  36.708   9.441  1.00 32.00     0.041 C 
BRANCH   4   5
ATOM      5  CE  LYS A 135      30.828  37.810   8.745  1.00 34.25     0.338 C 
ATOM      6  NZ  LYS A 135      30.244  39.147   9.043  1.00 35.99     0.618 N 
ENDBRANCH   4   5
ENDBRANCH   3   4
ENDBRANCH   2   3
ENDBRANCH   1   2
END_RES LYS A 135
BEGIN_RES TYR A 136
REMARK  2 active torsions:
REMARK  status: ('A' for Active; 'I' for Inactive)
REMARK    5  A    between atoms: CA   and  CB  
REMARK    6  A    between atoms: CB   and  CG  
ROOT
ATOM      7  CA  TYR A 136      36.583  36.399   8.994  1.00 26.14     0.191 C 
ENDROOT
BRANCH   7   8
ATOM      8  CB  TYR A 136      37.367  36.835  10.240  1.00 28.16     0.060 C 
BRANCH   8   9
ATOM      9  CG  TYR A 136      37.201  38.303  10.546  1.00 31.88    -0.020 A 
ATOM     10  CD2 TYR A 136      36.251  38.747  11.468  1.00 32.67    -0.002 A 
ATOM     11  CE2 TYR A 136      36.103  40.113  11.743  1.00 33.89     0.027 A 
ATOM     12  CZ  TYR A 136      36.914  41.044  11.089  1.00 34.34     0.131 A 
ATOM     13  OH  TYR A 136      36.791  42.402  11.352  1.00 35.14    -0.190 OA
ATOM     14  CE1 TYR A 136      37.863  40.621  10.169  1.00 35.01     0.027 A 
ATOM     15  CD1 TYR A 136      37.996  39.258   9.899  1.00 33.57    -0.002 A 
ENDBRANCH   8   9
ENDBRANCH   7   8
END_RES TYR A 136
BEGIN_RES ASN A 133
REMARK  2 active torsions:
REMARK  status: ('A' for Active; 'I' for Inactive)
REMARK    7  A    between atoms: CA   and  CB  
REMARK    8  A    between atoms: CB   and  CG  
ROOT
ATOM     16  CA  ASN A 133      31.225  30.257  11.749  1.00 18.15     0.196 C 
ENDROOT
BRANCH  16  17
ATOM     17  CB  ASN A 133      30.092  31.240  11.460  1.00 18.27     0.126 C 
BRANCH  17  18
ATOM     18  CG  ASN A 133      28.751  30.582  11.353  1.00 18.94     0.276 C 
ATOM     19  OD1 ASN A 133      28.552  29.665  10.554  1.00 18.09    -0.269 OA
ATOM     20  ND2 ASN A 133      27.805  31.052  12.166  1.00 18.93    -0.107 N 
ENDBRANCH  17  18
ENDBRANCH  16  17
END_RES ASN A 133
