REMARK VINA RESULT:    -2.924      9.211     14.764
REMARK INTER + INTRA:          -6.872
REMARK INTER:                  -3.366
REMARK INTRA:                  -3.506
REMARK UNBOUND:                -3.264
REMARK SMILES Cc1cn(CCNS(C)(=O)=O)nn1
REMARK SMILES IDX 6 1 5 2 4 3 1 4 2 5 3 6 13 7 12 8 7 9 8 11 10 12 11 13 9 14
REMARK H PARENT 7 10
REMARK Flexibility Score: inf
ROOT
ATOM      1  C   UNL     1      29.542  31.053  19.073  1.00  0.00     0.122 C 
ENDROOT
BRANCH   1   2
ATOM      2  C   UNL     1      29.500  29.981  20.168  1.00  0.00     0.162 C 
BRANCH   2   3
ATOM      3  N   UNL     1      28.350  29.120  19.857  1.00  0.00    -0.251 N 
ATOM      4  C   UNL     1      25.960  26.433  20.509  1.00  0.00     0.070 C 
ATOM      5  C   UNL     1      26.786  27.563  19.993  1.00  0.00     0.080 A 
ATOM      6  C   UNL     1      27.865  28.135  20.627  1.00  0.00     0.134 A 
ATOM      7  N   UNL     1      26.654  28.235  18.837  1.00  0.00    -0.136 NA
ATOM      8  N   UNL     1      27.595  29.158  18.777  1.00  0.00    -0.067 NA
ENDBRANCH   2   3
ENDBRANCH   1   2
BRANCH   1   9
ATOM      9  N   UNL     1      30.246  30.523  17.942  1.00  0.00    -0.214 NA
ATOM     10  H   UNL     1      30.184  29.500  17.883  1.00  0.00     0.141 HD
BRANCH   9  11
ATOM     11  S   UNL     1      29.755  31.305  16.496  1.00  0.00     0.208 S 
ATOM     12  O   UNL     1      29.005  30.354  15.612  1.00  0.00    -0.213 OA
ATOM     13  O   UNL     1      30.998  31.773  15.761  1.00  0.00    -0.213 OA
ATOM     14  C   UNL     1      28.797  32.723  16.894  1.00  0.00     0.176 C 
ENDBRANCH   9  11
ENDBRANCH   1   9
TORSDOF 4
BEGIN_RES LYS A 135
REMARK  4 active torsions:
REMARK  status: ('A' for Active; 'I' for Inactive)
REMARK    1  A    between atoms: CA   and  CB  
REMARK    2  A    between atoms: CB   and  CG  
REMARK    3  A    between atoms: CG   and  CD  
REMARK    4  A    between atoms: CD   and  CE  
ROOT
ATOM      1  CA  LYS A 135      33.193  34.663   9.290  1.00 25.02     0.186 C 
ENDROOT
BRANCH   1   2
ATOM      2  CB  LYS A 135      32.060  35.360  10.034  1.00 26.63     0.034 C 
BRANCH   2   3
ATOM      3  CG  LYS A 135      30.724  34.682   9.870  1.00 29.45     0.005 C 
BRANCH   3   4
ATOM      4  CD  LYS A 135      30.358  34.567   8.398  1.00 32.00     0.041 C 
BRANCH   4   5
ATOM      5  CE  LYS A 135      28.852  34.524   8.226  1.00 34.25     0.338 C 
ATOM      6  NZ  LYS A 135      28.199  33.847   9.380  1.00 35.99     0.618 N 
ENDBRANCH   4   5
ENDBRANCH   3   4
ENDBRANCH   2   3
ENDBRANCH   1   2
END_RES LYS A 135
BEGIN_RES TYR A 136
REMARK  2 active torsions:
REMARK  status: ('A' for Active; 'I' for Inactive)
REMARK    5  A    between atoms: CA   and  CB  
REMARK    6  A    between atoms: CB   and  CG  
ROOT
ATOM      7  CA  TYR A 136      36.583  36.399   8.994  1.00 26.14     0.191 C 
ENDROOT
BRANCH   7   8
ATOM      8  CB  TYR A 136      37.367  36.835  10.240  1.00 28.16     0.060 C 
BRANCH   8   9
ATOM      9  CG  TYR A 136      37.186  38.299  10.556  1.00 31.88    -0.020 A 
ATOM     10  CD2 TYR A 136      36.933  39.231   9.547  1.00 32.67    -0.002 A 
ATOM     11  CE2 TYR A 136      36.768  40.589   9.851  1.00 33.89     0.027 A 
ATOM     12  CZ  TYR A 136      36.858  41.019  11.178  1.00 34.34     0.131 A 
ATOM     13  OH  TYR A 136      36.692  42.358  11.503  1.00 35.14    -0.190 OA
ATOM     14  CE1 TYR A 136      37.110  40.107  12.193  1.00 35.01     0.027 A 
ATOM     15  CD1 TYR A 136      37.279  38.758  11.877  1.00 33.57    -0.002 A 
ENDBRANCH   8   9
ENDBRANCH   7   8
END_RES TYR A 136
BEGIN_RES ASN A 133
REMARK  2 active torsions:
REMARK  status: ('A' for Active; 'I' for Inactive)
REMARK    7  A    between atoms: CA   and  CB  
REMARK    8  A    between atoms: CB   and  CG  
ROOT
ATOM     16  CA  ASN A 133      31.225  30.257  11.749  1.00 18.15     0.196 C 
ENDROOT
BRANCH  16  17
ATOM     17  CB  ASN A 133      30.092  31.240  11.460  1.00 18.27     0.126 C 
BRANCH  17  18
ATOM     18  CG  ASN A 133      28.747  30.586  11.381  1.00 18.94     0.276 C 
ATOM     19  OD1 ASN A 133      28.558  29.601  10.665  1.00 18.09    -0.269 OA
ATOM     20  ND2 ASN A 133      27.787  31.136  12.123  1.00 18.93    -0.107 N 
ENDBRANCH  17  18
ENDBRANCH  16  17
END_RES ASN A 133
