REMARK VINA RESULT:    -3.482      8.387     14.900
REMARK INTER + INTRA:          -6.904
REMARK INTER:                  -3.692
REMARK INTRA:                  -3.212
REMARK UNBOUND:                -3.218
REMARK SMILES Cc1cn(-c2ccc3c(c2)OCO3)nn1
REMARK SMILES IDX 5 1 6 2 7 3 8 4 9 5 10 6 11 7 12 8 13 9 4 10 1 11 2 12 3 13
REMARK SMILES IDX 15 14 14 15
REMARK H PARENT
REMARK Flexibility Score: inf
ROOT
ATOM      1  C   UNL     1      27.368  28.793  18.711  1.00  0.00     0.070 A 
ATOM      2  C   UNL     1      26.184  28.124  18.934  1.00  0.00     0.032 A 
ATOM      3  C   UNL     1      25.142  28.237  18.040  1.00  0.00     0.053 A 
ATOM      4  C   UNL     1      25.331  29.045  16.916  1.00  0.00     0.165 A 
ATOM      5  C   UNL     1      26.510  29.717  16.688  1.00  0.00     0.167 A 
ATOM      6  C   UNL     1      27.524  29.582  17.595  1.00  0.00     0.079 A 
ATOM      7  O   UNL     1      26.365  30.432  15.479  1.00  0.00    -0.454 OA
ATOM      8  C   UNL     1      24.976  30.580  15.248  1.00  0.00     0.468 C 
ATOM      9  O   UNL     1      24.496  29.366  15.846  1.00  0.00    -0.454 OA
ENDROOT
BRANCH   1  10
ATOM     10  N   UNL     1      28.439  28.653  19.666  1.00  0.00    -0.220 N 
ATOM     11  C   UNL     1      30.503  26.828  22.109  1.00  0.00     0.070 C 
ATOM     12  C   UNL     1      29.825  27.785  21.169  1.00  0.00     0.080 A 
ATOM     13  C   UNL     1      28.740  27.534  20.352  1.00  0.00     0.140 A 
ATOM     14  N   UNL     1      30.150  29.070  20.946  1.00  0.00    -0.135 NA
ATOM     15  N   UNL     1      29.307  29.560  20.048  1.00  0.00    -0.062 NA
ENDBRANCH   1  10
TORSDOF 1
BEGIN_RES LYS A 135
REMARK  4 active torsions:
REMARK  status: ('A' for Active; 'I' for Inactive)
REMARK    1  A    between atoms: CA   and  CB  
REMARK    2  A    between atoms: CB   and  CG  
REMARK    3  A    between atoms: CG   and  CD  
REMARK    4  A    between atoms: CD   and  CE  
ROOT
ATOM      1  CA  LYS A 135      33.193  34.663   9.290  1.00 25.02     0.186 C 
ENDROOT
BRANCH   1   2
ATOM      2  CB  LYS A 135      32.060  35.360  10.034  1.00 26.63     0.034 C 
BRANCH   2   3
ATOM      3  CG  LYS A 135      30.801  35.502   9.218  1.00 29.45     0.005 C 
BRANCH   3   4
ATOM      4  CD  LYS A 135      30.153  34.146   8.991  1.00 32.00     0.041 C 
BRANCH   4   5
ATOM      5  CE  LYS A 135      28.687  34.308   8.638  1.00 34.25     0.338 C 
ATOM      6  NZ  LYS A 135      27.812  33.732   9.696  1.00 35.99     0.618 N 
ENDBRANCH   4   5
ENDBRANCH   3   4
ENDBRANCH   2   3
ENDBRANCH   1   2
END_RES LYS A 135
BEGIN_RES TYR A 136
REMARK  2 active torsions:
REMARK  status: ('A' for Active; 'I' for Inactive)
REMARK    5  A    between atoms: CA   and  CB  
REMARK    6  A    between atoms: CB   and  CG  
ROOT
ATOM      7  CA  TYR A 136      36.583  36.399   8.994  1.00 26.14     0.191 C 
ENDROOT
BRANCH   7   8
ATOM      8  CB  TYR A 136      37.367  36.835  10.240  1.00 28.16     0.060 C 
BRANCH   8   9
ATOM      9  CG  TYR A 136      37.212  38.306  10.537  1.00 31.88    -0.020 A 
ATOM     10  CD2 TYR A 136      36.198  38.771  11.377  1.00 32.67    -0.002 A 
ATOM     11  CE2 TYR A 136      36.062  40.140  11.645  1.00 33.89     0.027 A 
ATOM     12  CZ  TYR A 136      36.949  41.052  11.068  1.00 34.34     0.131 A 
ATOM     13  OH  TYR A 136      36.837  42.411  11.326  1.00 35.14    -0.190 OA
ATOM     14  CE1 TYR A 136      37.962  40.608  10.231  1.00 35.01     0.027 A 
ATOM     15  CD1 TYR A 136      38.084  39.242   9.966  1.00 33.57    -0.002 A 
ENDBRANCH   8   9
ENDBRANCH   7   8
END_RES TYR A 136
BEGIN_RES ASN A 133
REMARK  2 active torsions:
REMARK  status: ('A' for Active; 'I' for Inactive)
REMARK    7  A    between atoms: CA   and  CB  
REMARK    8  A    between atoms: CB   and  CG  
ROOT
ATOM     16  CA  ASN A 133      31.225  30.257  11.749  1.00 18.15     0.196 C 
ENDROOT
BRANCH  16  17
ATOM     17  CB  ASN A 133      30.092  31.240  11.460  1.00 18.27     0.126 C 
BRANCH  17  18
ATOM     18  CG  ASN A 133      28.754  30.580  11.333  1.00 18.94     0.276 C 
ATOM     19  OD1 ASN A 133      28.580  29.631  10.566  1.00 18.09    -0.269 OA
ATOM     20  ND2 ASN A 133      27.782  31.083  12.093  1.00 18.93    -0.107 N 
ENDBRANCH  17  18
ENDBRANCH  16  17
END_RES ASN A 133
