REMARK VINA RESULT:    -3.577      5.828      8.030
REMARK INTER + INTRA:          -7.305
REMARK INTER:                  -3.986
REMARK INTRA:                  -3.319
REMARK UNBOUND:                -3.310
REMARK SMILES Cc1cn(-c2cc(Cl)ccc2C(=O)N(C)C)nn1
REMARK SMILES IDX 5 1 6 2 7 3 8 4 9 5 10 6 11 7 4 8 1 9 2 10 3 11 18 12 17 13
REMARK SMILES IDX 12 14 13 15 14 16 15 17 16 18
REMARK H PARENT
REMARK Flexibility Score: inf
ROOT
ATOM      1  C   UNL     1      30.992  33.228  18.099  1.00  0.00     0.081 A 
ATOM      2  C   UNL     1      31.668  33.998  17.142  1.00  0.00     0.049 A 
ATOM      3  C   UNL     1      31.804  33.546  15.848  1.00  0.00     0.043 A 
ATOM      4  Cl  UNL     1      32.657  34.525  14.658  1.00  0.00    -0.084 Cl
ATOM      5  C   UNL     1      31.282  32.329  15.465  1.00  0.00     0.021 A 
ATOM      6  C   UNL     1      30.619  31.577  16.408  1.00  0.00     0.017 A 
ATOM      7  C   UNL     1      30.483  32.025  17.691  1.00  0.00     0.065 A 
ENDROOT
BRANCH   1   8
ATOM      8  N   UNL     1      30.857  33.706  19.431  1.00  0.00    -0.220 N 
ATOM      9  C   UNL     1      29.296  35.556  22.185  1.00  0.00     0.070 C 
ATOM     10  C   UNL     1      30.129  34.728  21.262  1.00  0.00     0.080 A 
ATOM     11  C   UNL     1      29.889  34.493  19.903  1.00  0.00     0.140 A 
ATOM     12  N   UNL     1      31.254  34.053  21.537  1.00  0.00    -0.135 NA
ATOM     13  N   UNL     1      31.656  33.461  20.432  1.00  0.00    -0.062 NA
ENDBRANCH   1   8
BRANCH   7  14
ATOM     14  C   UNL     1      29.771  31.200  18.671  1.00  0.00     0.255 C 
ATOM     15  O   UNL     1      30.383  30.399  19.416  1.00  0.00    -0.269 OA
ATOM     16  N   UNL     1      28.357  31.333  18.752  1.00  0.00    -0.345 N 
ATOM     17  C   UNL     1      27.624  30.514  19.727  1.00  0.00     0.146 C 
ATOM     18  C   UNL     1      27.624  32.236  17.917  1.00  0.00     0.146 C 
ENDBRANCH   7  14
TORSDOF 2
BEGIN_RES LYS A 135
REMARK  4 active torsions:
REMARK  status: ('A' for Active; 'I' for Inactive)
REMARK    1  A    between atoms: CA   and  CB  
REMARK    2  A    between atoms: CB   and  CG  
REMARK    3  A    between atoms: CG   and  CD  
REMARK    4  A    between atoms: CD   and  CE  
ROOT
ATOM      1  CA  LYS A 135      33.193  34.663   9.290  1.00 25.02     0.186 C 
ENDROOT
BRANCH   1   2
ATOM      2  CB  LYS A 135      32.060  35.360  10.034  1.00 26.63     0.034 C 
BRANCH   2   3
ATOM      3  CG  LYS A 135      30.734  34.655   9.910  1.00 29.45     0.005 C 
BRANCH   3   4
ATOM      4  CD  LYS A 135      30.329  34.527   8.449  1.00 32.00     0.041 C 
BRANCH   4   5
ATOM      5  CE  LYS A 135      28.818  34.539   8.313  1.00 34.25     0.338 C 
ATOM      6  NZ  LYS A 135      28.172  33.822   9.447  1.00 35.99     0.618 N 
ENDBRANCH   4   5
ENDBRANCH   3   4
ENDBRANCH   2   3
ENDBRANCH   1   2
END_RES LYS A 135
BEGIN_RES TYR A 136
REMARK  2 active torsions:
REMARK  status: ('A' for Active; 'I' for Inactive)
REMARK    5  A    between atoms: CA   and  CB  
REMARK    6  A    between atoms: CB   and  CG  
ROOT
ATOM      7  CA  TYR A 136      36.583  36.399   8.994  1.00 26.14     0.191 C 
ENDROOT
BRANCH   7   8
ATOM      8  CB  TYR A 136      37.367  36.835  10.240  1.00 28.16     0.060 C 
BRANCH   8   9
ATOM      9  CG  TYR A 136      37.290  38.322  10.483  1.00 31.88    -0.020 A 
ATOM     10  CD2 TYR A 136      38.202  38.966  11.322  1.00 32.67    -0.002 A 
ATOM     11  CE2 TYR A 136      38.121  40.348  11.543  1.00 33.89     0.027 A 
ATOM     12  CZ  TYR A 136      37.117  41.092  10.918  1.00 34.34     0.131 A 
ATOM     13  OH  TYR A 136      37.022  42.463  11.116  1.00 35.14    -0.190 OA
ATOM     14  CE1 TYR A 136      36.202  40.469  10.082  1.00 35.01     0.027 A 
ATOM     15  CD1 TYR A 136      36.289  39.091   9.875  1.00 33.57    -0.002 A 
ENDBRANCH   8   9
ENDBRANCH   7   8
END_RES TYR A 136
BEGIN_RES ASN A 133
REMARK  2 active torsions:
REMARK  status: ('A' for Active; 'I' for Inactive)
REMARK    7  A    between atoms: CA   and  CB  
REMARK    8  A    between atoms: CB   and  CG  
ROOT
ATOM     16  CA  ASN A 133      31.225  30.257  11.749  1.00 18.15     0.196 C 
ENDROOT
BRANCH  16  17
ATOM     17  CB  ASN A 133      30.092  31.240  11.460  1.00 18.27     0.126 C 
BRANCH  17  18
ATOM     18  CG  ASN A 133      28.752  30.582  11.346  1.00 18.94     0.276 C 
ATOM     19  OD1 ASN A 133      28.583  29.598  10.623  1.00 18.09    -0.269 OA
ATOM     20  ND2 ASN A 133      27.773  31.125  12.068  1.00 18.93    -0.107 N 
ENDBRANCH  17  18
ENDBRANCH  16  17
END_RES ASN A 133
