REMARK VINA RESULT:    -4.236      4.235      7.925
REMARK INTER + INTRA:          -7.791
REMARK INTER:                  -6.219
REMARK INTRA:                  -1.573
REMARK UNBOUND:                -3.060
REMARK SMILES Cc1cn(Cc2ccccc2)nn1
REMARK SMILES IDX 5 1 4 2 1 3 2 4 3 5 13 6 12 7 6 8 7 9 11 10 8 11 10 12 9 13
REMARK H PARENT
REMARK Flexibility Score: inf
ROOT
ATOM      1  C   UNL     1      27.883  35.869   6.417  1.00  0.00     0.181 C 
ENDROOT
BRANCH   1   2
ATOM      2  N   UNL     1      28.303  37.257   6.504  1.00  0.00    -0.248 N 
ATOM      3  C   UNL     1      29.903  40.340   5.491  1.00  0.00     0.070 C 
ATOM      4  C   UNL     1      29.168  39.209   6.129  1.00  0.00     0.080 A 
ATOM      5  C   UNL     1      29.024  37.935   5.616  1.00  0.00     0.134 A 
ATOM      6  N   UNL     1      28.525  39.246   7.309  1.00  0.00    -0.136 NA
ATOM      7  N   UNL     1      28.009  38.050   7.512  1.00  0.00    -0.067 NA
ENDBRANCH   1   2
BRANCH   1   8
ATOM      8  C   UNL     1      28.509  35.127   7.554  1.00  0.00    -0.026 A 
ATOM      9  C   UNL     1      27.729  34.583   8.557  1.00  0.00     0.005 A 
ATOM     10  C   UNL     1      29.876  34.953   7.656  1.00  0.00     0.005 A 
ATOM     11  C   UNL     1      28.305  33.898   9.606  1.00  0.00     0.000 A 
ATOM     12  C   UNL     1      30.457  34.269   8.704  1.00  0.00     0.000 A 
ATOM     13  C   UNL     1      29.677  33.727   9.703  1.00  0.00     0.000 A 
ENDBRANCH   1   8
TORSDOF 2
BEGIN_RES LYS A 135
REMARK  4 active torsions:
REMARK  status: ('A' for Active; 'I' for Inactive)
REMARK    1  A    between atoms: CA   and  CB  
REMARK    2  A    between atoms: CB   and  CG  
REMARK    3  A    between atoms: CG   and  CD  
REMARK    4  A    between atoms: CD   and  CE  
ROOT
ATOM      1  CA  LYS A 135      33.193  34.663   9.290  1.00 25.02     0.186 C 
ENDROOT
BRANCH   1   2
ATOM      2  CB  LYS A 135      32.060  35.360  10.034  1.00 26.63     0.034 C 
BRANCH   2   3
ATOM      3  CG  LYS A 135      32.518  36.124  11.250  1.00 29.45     0.005 C 
BRANCH   3   4
ATOM      4  CD  LYS A 135      31.685  37.382  11.438  1.00 32.00     0.041 C 
BRANCH   4   5
ATOM      5  CE  LYS A 135      30.724  37.563  10.278  1.00 34.25     0.338 C 
ATOM      6  NZ  LYS A 135      29.311  37.405  10.723  1.00 35.99     0.618 N 
ENDBRANCH   4   5
ENDBRANCH   3   4
ENDBRANCH   2   3
ENDBRANCH   1   2
END_RES LYS A 135
BEGIN_RES TYR A 136
REMARK  2 active torsions:
REMARK  status: ('A' for Active; 'I' for Inactive)
REMARK    5  A    between atoms: CA   and  CB  
REMARK    6  A    between atoms: CB   and  CG  
ROOT
ATOM      7  CA  TYR A 136      36.583  36.399   8.994  1.00 26.14     0.191 C 
ENDROOT
BRANCH   7   8
ATOM      8  CB  TYR A 136      37.367  36.835  10.240  1.00 28.16     0.060 C 
BRANCH   8   9
ATOM      9  CG  TYR A 136      36.485  37.468  11.288  1.00 31.88    -0.020 A 
ATOM     10  CD2 TYR A 136      36.306  36.871  12.538  1.00 32.67    -0.002 A 
ATOM     11  CE2 TYR A 136      35.483  37.467  13.505  1.00 33.89     0.027 A 
ATOM     12  CZ  TYR A 136      34.834  38.670  13.217  1.00 34.34     0.131 A 
ATOM     13  OH  TYR A 136      34.020  39.281  14.161  1.00 35.14    -0.190 OA
ATOM     14  CE1 TYR A 136      35.000  39.275  11.980  1.00 35.01     0.027 A 
ATOM     15  CD1 TYR A 136      35.817  38.670  11.023  1.00 33.57    -0.002 A 
ENDBRANCH   8   9
ENDBRANCH   7   8
END_RES TYR A 136
BEGIN_RES ASN A 133
REMARK  2 active torsions:
REMARK  status: ('A' for Active; 'I' for Inactive)
REMARK    7  A    between atoms: CA   and  CB  
REMARK    8  A    between atoms: CB   and  CG  
ROOT
ATOM     16  CA  ASN A 133      31.225  30.257  11.749  1.00 18.15     0.196 C 
ENDROOT
BRANCH  16  17
ATOM     17  CB  ASN A 133      30.092  31.240  11.460  1.00 18.27     0.126 C 
BRANCH  17  18
ATOM     18  CG  ASN A 133      28.750  30.583  11.360  1.00 18.94     0.276 C 
ATOM     19  OD1 ASN A 133      28.573  29.599  10.640  1.00 18.09    -0.269 OA
ATOM     20  ND2 ASN A 133      27.778  31.129  12.091  1.00 18.93    -0.107 N 
ENDBRANCH  17  18
ENDBRANCH  16  17
END_RES ASN A 133
