REMARK VINA RESULT:    -2.869      8.069     11.346
REMARK INTER + INTRA:          -6.907
REMARK INTER:                  -3.708
REMARK INTRA:                  -3.199
REMARK UNBOUND:                -3.368
REMARK SMILES CCOC(=O)Cn1cc(C)nn1
REMARK SMILES IDX 4 1 5 2 6 3 7 4 10 5 9 6 8 7 11 8 12 9 3 10 2 11 1 12
REMARK H PARENT
REMARK Flexibility Score: inf
ROOT
ATOM      1  C   UNL     1      24.961  30.583  14.750  1.00  0.00     0.327 C 
ATOM      2  O   UNL     1      24.476  29.634  15.443  1.00  0.00    -0.250 OA
ENDROOT
BRANCH   1   3
ATOM      3  C   UNL     1      25.669  31.660  15.463  1.00  0.00     0.268 C 
BRANCH   3   4
ATOM      4  N   UNL     1      27.079  31.397  15.594  1.00  0.00    -0.241 N 
ATOM      5  C   UNL     1      30.652  32.082  15.772  1.00  0.00     0.070 C 
ATOM      6  C   UNL     1      29.256  31.574  15.722  1.00  0.00     0.080 A 
ATOM      7  C   UNL     1      28.084  32.263  15.587  1.00  0.00     0.134 A 
ATOM      8  N   UNL     1      28.931  30.255  15.813  1.00  0.00    -0.136 NA
ATOM      9  N   UNL     1      27.624  30.197  15.733  1.00  0.00    -0.067 NA
ENDBRANCH   3   4
ENDBRANCH   1   3
BRANCH   1  10
ATOM     10  O   UNL     1      24.767  30.494  13.395  1.00  0.00    -0.465 OA
BRANCH  10  11
ATOM     11  C   UNL     1      23.767  29.639  12.839  1.00  0.00     0.229 C 
ATOM     12  C   UNL     1      22.472  30.345  12.641  1.00  0.00     0.049 C 
ENDBRANCH  10  11
ENDBRANCH   1  10
TORSDOF 4
BEGIN_RES LYS A 135
REMARK  4 active torsions:
REMARK  status: ('A' for Active; 'I' for Inactive)
REMARK    1  A    between atoms: CA   and  CB  
REMARK    2  A    between atoms: CB   and  CG  
REMARK    3  A    between atoms: CG   and  CD  
REMARK    4  A    between atoms: CD   and  CE  
ROOT
ATOM      1  CA  LYS A 135      33.193  34.663   9.290  1.00 25.02     0.186 C 
ENDROOT
BRANCH   1   2
ATOM      2  CB  LYS A 135      32.060  35.360  10.034  1.00 26.63     0.034 C 
BRANCH   2   3
ATOM      3  CG  LYS A 135      30.803  35.508   9.216  1.00 29.45     0.005 C 
BRANCH   3   4
ATOM      4  CD  LYS A 135      30.132  34.158   9.016  1.00 32.00     0.041 C 
BRANCH   4   5
ATOM      5  CE  LYS A 135      28.672  34.339   8.645  1.00 34.25     0.338 C 
ATOM      6  NZ  LYS A 135      27.781  33.667   9.631  1.00 35.99     0.618 N 
ENDBRANCH   4   5
ENDBRANCH   3   4
ENDBRANCH   2   3
ENDBRANCH   1   2
END_RES LYS A 135
BEGIN_RES TYR A 136
REMARK  2 active torsions:
REMARK  status: ('A' for Active; 'I' for Inactive)
REMARK    5  A    between atoms: CA   and  CB  
REMARK    6  A    between atoms: CB   and  CG  
ROOT
ATOM      7  CA  TYR A 136      36.583  36.399   8.994  1.00 26.14     0.191 C 
ENDROOT
BRANCH   7   8
ATOM      8  CB  TYR A 136      37.367  36.835  10.240  1.00 28.16     0.060 C 
BRANCH   8   9
ATOM      9  CG  TYR A 136      37.271  38.319  10.496  1.00 31.88    -0.020 A 
ATOM     10  CD2 TYR A 136      36.034  38.943  10.677  1.00 32.67    -0.002 A 
ATOM     11  CE2 TYR A 136      35.956  40.322  10.913  1.00 33.89     0.027 A 
ATOM     12  CZ  TYR A 136      37.125  41.084  10.968  1.00 34.34     0.131 A 
ATOM     13  OH  TYR A 136      37.072  42.450  11.207  1.00 35.14    -0.190 OA
ATOM     14  CE1 TYR A 136      38.362  40.481  10.789  1.00 35.01     0.027 A 
ATOM     15  CD1 TYR A 136      38.427  39.108  10.549  1.00 33.57    -0.002 A 
ENDBRANCH   8   9
ENDBRANCH   7   8
END_RES TYR A 136
BEGIN_RES ASN A 133
REMARK  2 active torsions:
REMARK  status: ('A' for Active; 'I' for Inactive)
REMARK    7  A    between atoms: CA   and  CB  
REMARK    8  A    between atoms: CB   and  CG  
ROOT
ATOM     16  CA  ASN A 133      31.225  30.257  11.749  1.00 18.15     0.196 C 
ENDROOT
BRANCH  16  17
ATOM     17  CB  ASN A 133      30.092  31.240  11.460  1.00 18.27     0.126 C 
BRANCH  17  18
ATOM     18  CG  ASN A 133      28.749  30.585  11.369  1.00 18.94     0.276 C 
ATOM     19  OD1 ASN A 133      28.559  29.619  10.628  1.00 18.09    -0.269 OA
ATOM     20  ND2 ASN A 133      27.791  31.111  12.131  1.00 18.93    -0.107 N 
ENDBRANCH  17  18
ENDBRANCH  16  17
END_RES ASN A 133
