REMARK VINA RESULT:    -2.802      4.411      9.251
REMARK INTER + INTRA:          -6.929
REMARK INTER:                  -4.652
REMARK INTRA:                  -2.277
REMARK UNBOUND:                -3.308
REMARK SMILES C=CCCCCn1cc(C)nn1
REMARK SMILES IDX 5 1 6 2 7 3 10 4 9 5 8 6 11 7 12 8 4 9 3 10 2 11 1 12
REMARK H PARENT
REMARK Flexibility Score: inf
ROOT
ATOM      1  C   UNL     1      28.082  37.827   6.350  1.00  0.00     0.024 C 
ENDROOT
BRANCH   1   2
ATOM      2  C   UNL     1      27.958  38.327   4.947  1.00  0.00     0.146 C 
BRANCH   2   3
ATOM      3  N   UNL     1      27.133  39.490   4.821  1.00  0.00    -0.252 N 
ATOM      4  C   UNL     1      25.661  42.365   3.139  1.00  0.00     0.070 C 
ATOM      5  C   UNL     1      26.123  41.251   4.050  1.00  0.00     0.080 A 
ATOM      6  C   UNL     1      27.014  40.251   3.724  1.00  0.00     0.134 A 
ATOM      7  N   UNL     1      25.760  41.036   5.314  1.00  0.00    -0.136 NA
ATOM      8  N   UNL     1      26.372  39.979   5.762  1.00  0.00    -0.067 NA
ENDBRANCH   2   3
ENDBRANCH   1   2
BRANCH   1   9
ATOM      9  C   UNL     1      27.094  36.734   6.679  1.00  0.00     0.006 C 
BRANCH   9  10
ATOM     10  C   UNL     1      27.837  35.425   6.964  1.00  0.00     0.027 C 
BRANCH  10  11
ATOM     11  C   UNL     1      27.046  34.721   8.003  1.00  0.00    -0.035 C 
ATOM     12  C   UNL     1      26.276  35.430   8.817  1.00  0.00     0.004 C 
ENDBRANCH  10  11
ENDBRANCH   9  10
ENDBRANCH   1   9
TORSDOF 5
BEGIN_RES LYS A 135
REMARK  4 active torsions:
REMARK  status: ('A' for Active; 'I' for Inactive)
REMARK    1  A    between atoms: CA   and  CB  
REMARK    2  A    between atoms: CB   and  CG  
REMARK    3  A    between atoms: CG   and  CD  
REMARK    4  A    between atoms: CD   and  CE  
ROOT
ATOM      1  CA  LYS A 135      33.193  34.663   9.290  1.00 25.02     0.186 C 
ENDROOT
BRANCH   1   2
ATOM      2  CB  LYS A 135      32.060  35.360  10.034  1.00 26.63     0.034 C 
BRANCH   2   3
ATOM      3  CG  LYS A 135      30.766  35.398   9.263  1.00 29.45     0.005 C 
BRANCH   3   4
ATOM      4  CD  LYS A 135      30.046  36.718   9.487  1.00 32.00     0.041 C 
BRANCH   4   5
ATOM      5  CE  LYS A 135      30.845  37.867   8.903  1.00 34.25     0.338 C 
ATOM      6  NZ  LYS A 135      31.048  38.946   9.909  1.00 35.99     0.618 N 
ENDBRANCH   4   5
ENDBRANCH   3   4
ENDBRANCH   2   3
ENDBRANCH   1   2
END_RES LYS A 135
BEGIN_RES TYR A 136
REMARK  2 active torsions:
REMARK  status: ('A' for Active; 'I' for Inactive)
REMARK    5  A    between atoms: CA   and  CB  
REMARK    6  A    between atoms: CB   and  CG  
ROOT
ATOM      7  CA  TYR A 136      36.583  36.399   8.994  1.00 26.14     0.191 C 
ENDROOT
BRANCH   7   8
ATOM      8  CB  TYR A 136      37.367  36.835  10.240  1.00 28.16     0.060 C 
BRANCH   8   9
ATOM      9  CG  TYR A 136      37.250  38.315  10.511  1.00 31.88    -0.020 A 
ATOM     10  CD2 TYR A 136      37.990  38.925  11.526  1.00 32.67    -0.002 A 
ATOM     11  CE2 TYR A 136      37.873  40.300  11.771  1.00 33.89     0.027 A 
ATOM     12  CZ  TYR A 136      37.005  41.071  10.993  1.00 34.34     0.131 A 
ATOM     13  OH  TYR A 136      36.878  42.436  11.213  1.00 35.14    -0.190 OA
ATOM     14  CE1 TYR A 136      36.261  40.481   9.982  1.00 35.01     0.027 A 
ATOM     15  CD1 TYR A 136      36.382  39.110   9.751  1.00 33.57    -0.002 A 
ENDBRANCH   8   9
ENDBRANCH   7   8
END_RES TYR A 136
BEGIN_RES ASN A 133
REMARK  2 active torsions:
REMARK  status: ('A' for Active; 'I' for Inactive)
REMARK    7  A    between atoms: CA   and  CB  
REMARK    8  A    between atoms: CB   and  CG  
ROOT
ATOM     16  CA  ASN A 133      31.225  30.257  11.749  1.00 18.15     0.196 C 
ENDROOT
BRANCH  16  17
ATOM     17  CB  ASN A 133      30.092  31.240  11.460  1.00 18.27     0.126 C 
BRANCH  17  18
ATOM     18  CG  ASN A 133      28.754  30.580  11.333  1.00 18.94     0.276 C 
ATOM     19  OD1 ASN A 133      28.582  29.629  10.568  1.00 18.09    -0.269 OA
ATOM     20  ND2 ASN A 133      27.780  31.085  12.089  1.00 18.93    -0.107 N 
ENDBRANCH  17  18
ENDBRANCH  16  17
END_RES ASN A 133
