REMARK VINA RESULT:    -4.272      3.557      5.544
REMARK INTER + INTRA:          -8.035
REMARK INTER:                  -5.206
REMARK INTRA:                  -2.829
REMARK UNBOUND:                -3.139
REMARK SMILES Cc1cn(-c2cccc(S(N)(=O)=O)c2)nn1
REMARK SMILES IDX 5 1 14 2 9 3 8 4 7 5 6 6 4 7 1 8 2 9 3 10 16 11 15 12 10 13
REMARK SMILES IDX 12 14 13 15 11 16
REMARK H PARENT 11 17 11 18
REMARK Flexibility Score: inf
ROOT
ATOM      1  C   UNL     1      29.279  31.885  15.751  1.00  0.00     0.068 A 
ATOM      2  C   UNL     1      29.380  32.753  14.678  1.00  0.00     0.050 A 
ATOM      3  C   UNL     1      30.459  33.596  14.520  1.00  0.00     0.084 A 
ATOM      4  C   UNL     1      31.494  33.600  15.443  1.00  0.00     0.022 A 
ATOM      5  C   UNL     1      31.415  32.743  16.521  1.00  0.00     0.004 A 
ATOM      6  C   UNL     1      30.318  31.906  16.657  1.00  0.00     0.028 A 
ENDROOT
BRANCH   1   7
ATOM      7  N   UNL     1      28.152  31.026  15.890  1.00  0.00    -0.220 N 
ATOM      8  C   UNL     1      24.630  30.038  15.480  1.00  0.00     0.070 C 
ATOM      9  C   UNL     1      26.083  30.192  15.775  1.00  0.00     0.080 A 
ATOM     10  C   UNL     1      26.898  31.261  15.452  1.00  0.00     0.140 A 
ATOM     11  N   UNL     1      26.880  29.320  16.412  1.00  0.00    -0.135 NA
ATOM     12  N   UNL     1      28.095  29.837  16.465  1.00  0.00    -0.062 NA
ENDBRANCH   1   7
BRANCH   3  13
ATOM     13  S   UNL     1      30.482  34.650  13.127  1.00  0.00     0.238 S 
ATOM     14  O   UNL     1      29.931  36.007  13.455  1.00  0.00    -0.207 OA
ATOM     15  O   UNL     1      29.643  34.021  12.053  1.00  0.00    -0.207 OA
BRANCH  13  16
ATOM     16  N   UNL     1      32.092  34.788  12.538  1.00  0.00    -0.225 NA
ATOM     17  H   UNL     1      32.176  34.482  11.533  1.00  0.00     0.137 HD
ATOM     18  H   UNL     1      32.709  34.174  13.118  1.00  0.00     0.137 HD
ENDBRANCH  13  16
ENDBRANCH   3  13
TORSDOF 3
BEGIN_RES LYS A 135
REMARK  4 active torsions:
REMARK  status: ('A' for Active; 'I' for Inactive)
REMARK    1  A    between atoms: CA   and  CB  
REMARK    2  A    between atoms: CB   and  CG  
REMARK    3  A    between atoms: CG   and  CD  
REMARK    4  A    between atoms: CD   and  CE  
ROOT
ATOM      1  CA  LYS A 135      33.193  34.663   9.290  1.00 25.02     0.186 C 
ENDROOT
BRANCH   1   2
ATOM      2  CB  LYS A 135      32.060  35.360  10.034  1.00 26.63     0.034 C 
BRANCH   2   3
ATOM      3  CG  LYS A 135      30.853  35.634   9.174  1.00 29.45     0.005 C 
BRANCH   3   4
ATOM      4  CD  LYS A 135      30.221  34.332   8.706  1.00 32.00     0.041 C 
BRANCH   4   5
ATOM      5  CE  LYS A 135      28.772  34.553   8.318  1.00 34.25     0.338 C 
ATOM      6  NZ  LYS A 135      27.852  33.862   9.265  1.00 35.99     0.618 N 
ENDBRANCH   4   5
ENDBRANCH   3   4
ENDBRANCH   2   3
ENDBRANCH   1   2
END_RES LYS A 135
BEGIN_RES TYR A 136
REMARK  2 active torsions:
REMARK  status: ('A' for Active; 'I' for Inactive)
REMARK    5  A    between atoms: CA   and  CB  
REMARK    6  A    between atoms: CB   and  CG  
ROOT
ATOM      7  CA  TYR A 136      36.583  36.399   8.994  1.00 26.14     0.191 C 
ENDROOT
BRANCH   7   8
ATOM      8  CB  TYR A 136      37.367  36.835  10.240  1.00 28.16     0.060 C 
BRANCH   8   9
ATOM      9  CG  TYR A 136      36.642  36.514  11.524  1.00 31.88    -0.020 A 
ATOM     10  CD2 TYR A 136      35.655  37.364  12.029  1.00 32.67    -0.002 A 
ATOM     11  CE2 TYR A 136      34.989  37.058  13.223  1.00 33.89     0.027 A 
ATOM     12  CZ  TYR A 136      35.312  35.890  13.918  1.00 34.34     0.131 A 
ATOM     13  OH  TYR A 136      34.660  35.563  15.099  1.00 35.14    -0.190 OA
ATOM     14  CE1 TYR A 136      36.290  35.035  13.432  1.00 35.01     0.027 A 
ATOM     15  CD1 TYR A 136      36.952  35.354  12.245  1.00 33.57    -0.002 A 
ENDBRANCH   8   9
ENDBRANCH   7   8
END_RES TYR A 136
BEGIN_RES ASN A 133
REMARK  2 active torsions:
REMARK  status: ('A' for Active; 'I' for Inactive)
REMARK    7  A    between atoms: CA   and  CB  
REMARK    8  A    between atoms: CB   and  CG  
ROOT
ATOM     16  CA  ASN A 133      31.225  30.257  11.749  1.00 18.15     0.196 C 
ENDROOT
BRANCH  16  17
ATOM     17  CB  ASN A 133      30.092  31.240  11.460  1.00 18.27     0.126 C 
BRANCH  17  18
ATOM     18  CG  ASN A 133      28.766  30.573  11.265  1.00 18.94     0.276 C 
ATOM     19  OD1 ASN A 133      28.654  29.568  10.561  1.00 18.09    -0.269 OA
ATOM     20  ND2 ASN A 133      27.733  31.134  11.893  1.00 18.93    -0.107 N 
ENDBRANCH  17  18
ENDBRANCH  16  17
END_RES ASN A 133
