REMARK VINA RESULT:    -3.201      8.079     14.571
REMARK INTER + INTRA:          -7.192
REMARK INTER:                  -3.742
REMARK INTRA:                  -3.450
REMARK UNBOUND:                -3.243
REMARK SMILES CC(=O)OCCn1cc(C)nn1
REMARK SMILES IDX 5 1 6 2 7 3 10 4 9 5 8 6 11 7 12 8 4 9 2 10 3 11 1 12
REMARK H PARENT
REMARK Flexibility Score: inf
ROOT
ATOM      1  C   UNL     1      37.815  35.048  14.851  1.00  0.00     0.256 C 
ENDROOT
BRANCH   1   2
ATOM      2  C   UNL     1      39.306  34.998  14.961  1.00  0.00     0.187 C 
BRANCH   2   3
ATOM      3  N   UNL     1      39.963  35.092  13.668  1.00  0.00    -0.249 N 
ATOM      4  C   UNL     1      40.691  36.544  10.403  1.00  0.00     0.070 C 
ATOM      5  C   UNL     1      40.589  35.758  11.654  1.00  0.00     0.080 A 
ATOM      6  C   UNL     1      39.767  36.030  12.738  1.00  0.00     0.134 A 
ATOM      7  N   UNL     1      41.255  34.629  12.011  1.00  0.00    -0.136 NA
ATOM      8  N   UNL     1      40.869  34.248  13.216  1.00  0.00    -0.067 NA
ENDBRANCH   2   3
ENDBRANCH   1   2
BRANCH   1   9
ATOM      9  O   UNL     1      37.348  33.885  14.233  1.00  0.00    -0.464 OA
BRANCH   9  10
ATOM     10  C   UNL     1      36.649  33.879  13.061  1.00  0.00     0.302 C 
ATOM     11  O   UNL     1      35.459  34.262  13.007  1.00  0.00    -0.253 OA
ATOM     12  C   UNL     1      37.257  33.415  11.761  1.00  0.00     0.139 C 
ENDBRANCH   9  10
ENDBRANCH   1   9
TORSDOF 4
BEGIN_RES LYS A 135
REMARK  4 active torsions:
REMARK  status: ('A' for Active; 'I' for Inactive)
REMARK    1  A    between atoms: CA   and  CB  
REMARK    2  A    between atoms: CB   and  CG  
REMARK    3  A    between atoms: CG   and  CD  
REMARK    4  A    between atoms: CD   and  CE  
ROOT
ATOM      1  CA  LYS A 135      33.193  34.663   9.290  1.00 25.02     0.186 C 
ENDROOT
BRANCH   1   2
ATOM      2  CB  LYS A 135      32.060  35.360  10.034  1.00 26.63     0.034 C 
BRANCH   2   3
ATOM      3  CG  LYS A 135      30.802  35.505   9.217  1.00 29.45     0.005 C 
BRANCH   3   4
ATOM      4  CD  LYS A 135      30.153  34.149   8.987  1.00 32.00     0.041 C 
BRANCH   4   5
ATOM      5  CE  LYS A 135      28.687  34.313   8.634  1.00 34.25     0.338 C 
ATOM      6  NZ  LYS A 135      27.813  33.704   9.674  1.00 35.99     0.618 N 
ENDBRANCH   4   5
ENDBRANCH   3   4
ENDBRANCH   2   3
ENDBRANCH   1   2
END_RES LYS A 135
BEGIN_RES TYR A 136
REMARK  2 active torsions:
REMARK  status: ('A' for Active; 'I' for Inactive)
REMARK    5  A    between atoms: CA   and  CB  
REMARK    6  A    between atoms: CB   and  CG  
ROOT
ATOM      7  CA  TYR A 136      36.583  36.399   8.994  1.00 26.14     0.191 C 
ENDROOT
BRANCH   7   8
ATOM      8  CB  TYR A 136      37.367  36.835  10.240  1.00 28.16     0.060 C 
BRANCH   8   9
ATOM      9  CG  TYR A 136      37.226  38.309  10.528  1.00 31.88    -0.020 A 
ATOM     10  CD2 TYR A 136      38.115  39.240   9.987  1.00 32.67    -0.002 A 
ATOM     11  CE2 TYR A 136      37.976  40.608  10.262  1.00 33.89     0.027 A 
ATOM     12  CZ  TYR A 136      36.937  41.047  11.086  1.00 34.34     0.131 A 
ATOM     13  OH  TYR A 136      36.776  42.397  11.367  1.00 35.14    -0.190 OA
ATOM     14  CE1 TYR A 136      36.045  40.136  11.633  1.00 35.01     0.027 A 
ATOM     15  CD1 TYR A 136      36.198  38.776  11.357  1.00 33.57    -0.002 A 
ENDBRANCH   8   9
ENDBRANCH   7   8
END_RES TYR A 136
BEGIN_RES ASN A 133
REMARK  2 active torsions:
REMARK  status: ('A' for Active; 'I' for Inactive)
REMARK    7  A    between atoms: CA   and  CB  
REMARK    8  A    between atoms: CB   and  CG  
ROOT
ATOM     16  CA  ASN A 133      31.225  30.257  11.749  1.00 18.15     0.196 C 
ENDROOT
BRANCH  16  17
ATOM     17  CB  ASN A 133      30.092  31.240  11.460  1.00 18.27     0.126 C 
BRANCH  17  18
ATOM     18  CG  ASN A 133      28.750  30.583  11.361  1.00 18.94     0.276 C 
ATOM     19  OD1 ASN A 133      28.565  29.618  10.617  1.00 18.09    -0.269 OA
ATOM     20  ND2 ASN A 133      27.787  31.108  12.117  1.00 18.93    -0.107 N 
ENDBRANCH  17  18
ENDBRANCH  16  17
END_RES ASN A 133
