REMARK VINA RESULT:    -3.489      8.925     13.254
REMARK INTER + INTRA:          -7.569
REMARK INTER:                  -4.067
REMARK INTRA:                  -3.502
REMARK UNBOUND:                -3.264
REMARK SMILES Cc1cn(CCNS(C)(=O)=O)nn1
REMARK SMILES IDX 6 1 5 2 4 3 1 4 2 5 3 6 13 7 12 8 7 9 8 11 10 12 11 13 9 14
REMARK H PARENT 7 10
REMARK Flexibility Score: inf
ROOT
ATOM      1  C   UNL     1      34.660  34.811  13.574  1.00  0.00     0.122 C 
ENDROOT
BRANCH   1   2
ATOM      2  C   UNL     1      33.300  35.363  13.132  1.00  0.00     0.162 C 
BRANCH   2   3
ATOM      3  N   UNL     1      33.535  36.755  12.722  1.00  0.00    -0.251 N 
ATOM      4  C   UNL     1      33.017  39.725  10.656  1.00  0.00     0.070 C 
ATOM      5  C   UNL     1      33.422  38.681  11.643  1.00  0.00     0.080 A 
ATOM      6  C   UNL     1      32.936  37.395  11.707  1.00  0.00     0.134 A 
ATOM      7  N   UNL     1      34.316  38.775  12.640  1.00  0.00    -0.136 NA
ATOM      8  N   UNL     1      34.368  37.618  13.270  1.00  0.00    -0.067 NA
ENDBRANCH   2   3
ENDBRANCH   1   2
BRANCH   1   9
ATOM      9  N   UNL     1      35.523  34.753  12.430  1.00  0.00    -0.214 NA
ATOM     10  H   UNL     1      35.253  35.420  11.699  1.00  0.00     0.141 HD
BRANCH   9  11
ATOM     11  S   UNL     1      37.166  34.905  12.898  1.00  0.00     0.208 S 
ATOM     12  O   UNL     1      37.347  36.083  13.808  1.00  0.00    -0.213 OA
ATOM     13  O   UNL     1      37.999  35.125  11.648  1.00  0.00    -0.213 OA
ATOM     14  C   UNL     1      37.703  33.409  13.647  1.00  0.00     0.176 C 
ENDBRANCH   9  11
ENDBRANCH   1   9
TORSDOF 4
BEGIN_RES LYS A 135
REMARK  4 active torsions:
REMARK  status: ('A' for Active; 'I' for Inactive)
REMARK    1  A    between atoms: CA   and  CB  
REMARK    2  A    between atoms: CB   and  CG  
REMARK    3  A    between atoms: CG   and  CD  
REMARK    4  A    between atoms: CD   and  CE  
ROOT
ATOM      1  CA  LYS A 135      33.193  34.663   9.290  1.00 25.02     0.186 C 
ENDROOT
BRANCH   1   2
ATOM      2  CB  LYS A 135      32.060  35.360  10.034  1.00 26.63     0.034 C 
BRANCH   2   3
ATOM      3  CG  LYS A 135      30.850  35.627   9.176  1.00 29.45     0.005 C 
BRANCH   3   4
ATOM      4  CD  LYS A 135      30.222  34.321   8.713  1.00 32.00     0.041 C 
BRANCH   4   5
ATOM      5  CE  LYS A 135      28.789  34.546   8.272  1.00 34.25     0.338 C 
ATOM      6  NZ  LYS A 135      28.731  35.362   7.028  1.00 35.99     0.618 N 
ENDBRANCH   4   5
ENDBRANCH   3   4
ENDBRANCH   2   3
ENDBRANCH   1   2
END_RES LYS A 135
BEGIN_RES TYR A 136
REMARK  2 active torsions:
REMARK  status: ('A' for Active; 'I' for Inactive)
REMARK    5  A    between atoms: CA   and  CB  
REMARK    6  A    between atoms: CB   and  CG  
ROOT
ATOM      7  CA  TYR A 136      36.583  36.399   8.994  1.00 26.14     0.191 C 
ENDROOT
BRANCH   7   8
ATOM      8  CB  TYR A 136      37.367  36.835  10.240  1.00 28.16     0.060 C 
BRANCH   8   9
ATOM      9  CG  TYR A 136      37.246  38.314  10.514  1.00 31.88    -0.020 A 
ATOM     10  CD2 TYR A 136      37.742  38.874  11.693  1.00 32.67    -0.002 A 
ATOM     11  CE2 TYR A 136      37.623  40.249  11.938  1.00 33.89     0.027 A 
ATOM     12  CZ  TYR A 136      37.001  41.071  10.995  1.00 34.34     0.131 A 
ATOM     13  OH  TYR A 136      36.878  42.436  11.214  1.00 35.14    -0.190 OA
ATOM     14  CE1 TYR A 136      36.500  40.531   9.819  1.00 35.01     0.027 A 
ATOM     15  CD1 TYR A 136      36.619  39.159   9.589  1.00 33.57    -0.002 A 
ENDBRANCH   8   9
ENDBRANCH   7   8
END_RES TYR A 136
BEGIN_RES ASN A 133
REMARK  2 active torsions:
REMARK  status: ('A' for Active; 'I' for Inactive)
REMARK    7  A    between atoms: CA   and  CB  
REMARK    8  A    between atoms: CB   and  CG  
ROOT
ATOM     16  CA  ASN A 133      31.225  30.257  11.749  1.00 18.15     0.196 C 
ENDROOT
BRANCH  16  17
ATOM     17  CB  ASN A 133      30.092  31.240  11.460  1.00 18.27     0.126 C 
BRANCH  17  18
ATOM     18  CG  ASN A 133      28.751  30.582  11.354  1.00 18.94     0.276 C 
ATOM     19  OD1 ASN A 133      28.576  29.604  10.625  1.00 18.09    -0.269 OA
ATOM     20  ND2 ASN A 133      27.778  31.122  12.087  1.00 18.93    -0.107 N 
ENDBRANCH  17  18
ENDBRANCH  16  17
END_RES ASN A 133
