REMARK VINA RESULT:    -4.933      3.539      6.964
REMARK INTER + INTRA:          -8.883
REMARK INTER:                  -5.738
REMARK INTRA:                  -3.145
REMARK UNBOUND:                -2.941
REMARK SMILES Cc1cn(-c2ccc(S(=O)(=O)c3ccc(N)cc3)cc2)nn1
REMARK SMILES IDX 9 1 10 2 11 3 8 4 5 5 6 6 20 7 7 8 19 9 4 10 1 11 2 12 3 13
REMARK SMILES IDX 22 14 21 15 12 16 13 17 18 18 14 19 17 20 15 21 16 22
REMARK H PARENT 16 23 16 24
REMARK Flexibility Score: inf
ROOT
ATOM      1  S   UNL     1      29.882  39.982   9.762  1.00  0.00     0.206 S 
ATOM      2  O   UNL     1      30.725  41.125   9.224  1.00  0.00    -0.219 OA
ATOM      3  O   UNL     1      28.798  40.608  10.594  1.00  0.00    -0.219 OA
ENDROOT
BRANCH   1   4
ATOM      4  C   UNL     1      30.871  38.883  10.681  1.00  0.00     0.072 A 
ATOM      5  C   UNL     1      32.549  37.147  12.108  1.00  0.00     0.066 A 
ATOM      6  C   UNL     1      33.047  38.001  11.118  1.00  0.00     0.030 A 
ATOM      7  C   UNL     1      31.214  37.180  12.365  1.00  0.00     0.030 A 
ATOM      8  C   UNL     1      32.219  38.855  10.417  1.00  0.00     0.023 A 
ATOM      9  C   UNL     1      30.374  38.043  11.656  1.00  0.00     0.023 A 
BRANCH   5  10
ATOM     10  N   UNL     1      33.465  36.292  12.790  1.00  0.00    -0.220 N 
ATOM     11  C   UNL     1      36.613  34.907  13.994  1.00  0.00     0.070 C 
ATOM     12  C   UNL     1      35.245  35.303  13.621  1.00  0.00     0.080 A 
ATOM     13  C   UNL     1      34.791  36.339  12.835  1.00  0.00     0.140 A 
ATOM     14  N   UNL     1      34.136  34.644  14.039  1.00  0.00    -0.135 NA
ATOM     15  N   UNL     1      33.104  35.259  13.526  1.00  0.00    -0.062 NA
ENDBRANCH   5  10
ENDBRANCH   1   4
BRANCH   1  16
ATOM     16  C   UNL     1      29.103  39.166   8.415  1.00  0.00     0.072 A 
ATOM     17  C   UNL     1      29.713  39.027   7.186  1.00  0.00     0.023 A 
ATOM     18  C   UNL     1      27.831  38.632   8.556  1.00  0.00     0.023 A 
ATOM     19  C   UNL     1      29.091  38.380   6.123  1.00  0.00     0.027 A 
ATOM     20  C   UNL     1      27.211  37.985   7.492  1.00  0.00     0.027 A 
ATOM     21  C   UNL     1      27.833  37.853   6.268  1.00  0.00     0.031 A 
BRANCH  21  22
ATOM     22  N   UNL     1      27.215  37.195   5.165  1.00  0.00    -0.399 N 
ATOM     23  H   UNL     1      26.328  36.686   5.276  1.00  0.00     0.156 HD
ATOM     24  H   UNL     1      27.669  37.227   4.227  1.00  0.00     0.156 HD
ENDBRANCH  21  22
ENDBRANCH   1  16
TORSDOF 4
BEGIN_RES LYS A 135
REMARK  4 active torsions:
REMARK  status: ('A' for Active; 'I' for Inactive)
REMARK    1  A    between atoms: CA   and  CB  
REMARK    2  A    between atoms: CB   and  CG  
REMARK    3  A    between atoms: CG   and  CD  
REMARK    4  A    between atoms: CD   and  CE  
ROOT
ATOM      1  CA  LYS A 135      33.193  34.663   9.290  1.00 25.02     0.186 C 
ENDROOT
BRANCH   1   2
ATOM      2  CB  LYS A 135      32.060  35.360  10.034  1.00 26.63     0.034 C 
BRANCH   2   3
ATOM      3  CG  LYS A 135      30.697  34.800   9.717  1.00 29.45     0.005 C 
BRANCH   3   4
ATOM      4  CD  LYS A 135      30.067  35.548   8.552  1.00 32.00     0.041 C 
BRANCH   4   5
ATOM      5  CE  LYS A 135      28.948  34.731   7.937  1.00 34.25     0.338 C 
ATOM      6  NZ  LYS A 135      27.973  34.291   8.973  1.00 35.99     0.618 N 
ENDBRANCH   4   5
ENDBRANCH   3   4
ENDBRANCH   2   3
ENDBRANCH   1   2
END_RES LYS A 135
BEGIN_RES TYR A 136
REMARK  2 active torsions:
REMARK  status: ('A' for Active; 'I' for Inactive)
REMARK    5  A    between atoms: CA   and  CB  
REMARK    6  A    between atoms: CB   and  CG  
ROOT
ATOM      7  CA  TYR A 136      36.583  36.399   8.994  1.00 26.14     0.191 C 
ENDROOT
BRANCH   7   8
ATOM      8  CB  TYR A 136      37.367  36.835  10.240  1.00 28.16     0.060 C 
BRANCH   8   9
ATOM      9  CG  TYR A 136      37.353  38.331  10.440  1.00 31.88    -0.020 A 
ATOM     10  CD2 TYR A 136      38.370  38.975  11.149  1.00 32.67    -0.002 A 
ATOM     11  CE2 TYR A 136      38.347  40.364  11.330  1.00 33.89     0.027 A 
ATOM     12  CZ  TYR A 136      37.297  41.116  10.799  1.00 34.34     0.131 A 
ATOM     13  OH  TYR A 136      37.257  42.494  10.960  1.00 35.14    -0.190 OA
ATOM     14  CE1 TYR A 136      36.278  40.493  10.093  1.00 35.01     0.027 A 
ATOM     15  CD1 TYR A 136      36.308  39.107   9.924  1.00 33.57    -0.002 A 
ENDBRANCH   8   9
ENDBRANCH   7   8
END_RES TYR A 136
BEGIN_RES ASN A 133
REMARK  2 active torsions:
REMARK  status: ('A' for Active; 'I' for Inactive)
REMARK    7  A    between atoms: CA   and  CB  
REMARK    8  A    between atoms: CB   and  CG  
ROOT
ATOM     16  CA  ASN A 133      31.225  30.257  11.749  1.00 18.15     0.196 C 
ENDROOT
BRANCH  16  17
ATOM     17  CB  ASN A 133      30.092  31.240  11.460  1.00 18.27     0.126 C 
BRANCH  17  18
ATOM     18  CG  ASN A 133      28.749  30.584  11.366  1.00 18.94     0.276 C 
ATOM     19  OD1 ASN A 133      28.566  29.606  10.639  1.00 18.09    -0.269 OA
ATOM     20  ND2 ASN A 133      27.784  31.124  12.108  1.00 18.93    -0.107 N 
ENDBRANCH  17  18
ENDBRANCH  16  17
END_RES ASN A 133
