REMARK VINA RESULT:    -3.196      7.826     13.964
REMARK INTER + INTRA:          -7.186
REMARK INTER:                  -3.858
REMARK INTRA:                  -3.329
REMARK UNBOUND:                -3.243
REMARK SMILES CC(=O)OCCn1cc(C)nn1
REMARK SMILES IDX 5 1 6 2 7 3 10 4 9 5 8 6 11 7 12 8 4 9 2 10 3 11 1 12
REMARK H PARENT
REMARK Flexibility Score: inf
ROOT
ATOM      1  C   UNL     1      38.429  33.390  12.780  1.00  0.00     0.256 C 
ENDROOT
BRANCH   1   2
ATOM      2  C   UNL     1      37.625  33.784  13.977  1.00  0.00     0.187 C 
BRANCH   2   3
ATOM      3  N   UNL     1      36.514  34.658  13.640  1.00  0.00    -0.249 N 
ATOM      4  C   UNL     1      34.715  37.822  13.424  1.00  0.00     0.070 C 
ATOM      5  C   UNL     1      35.214  36.429  13.385  1.00  0.00     0.080 A 
ATOM      6  C   UNL     1      36.437  35.974  13.854  1.00  0.00     0.134 A 
ATOM      7  N   UNL     1      34.605  35.316  12.898  1.00  0.00    -0.136 NA
ATOM      8  N   UNL     1      35.396  34.270  13.057  1.00  0.00    -0.067 NA
ENDBRANCH   2   3
ENDBRANCH   1   2
BRANCH   1   9
ATOM      9  O   UNL     1      39.670  34.033  12.812  1.00  0.00    -0.464 OA
BRANCH   9  10
ATOM     10  C   UNL     1      39.846  35.354  12.517  1.00  0.00     0.302 C 
ATOM     11  O   UNL     1      39.589  35.810  11.381  1.00  0.00    -0.253 OA
ATOM     12  C   UNL     1      40.359  36.345  13.531  1.00  0.00     0.139 C 
ENDBRANCH   9  10
ENDBRANCH   1   9
TORSDOF 4
BEGIN_RES LYS A 135
REMARK  4 active torsions:
REMARK  status: ('A' for Active; 'I' for Inactive)
REMARK    1  A    between atoms: CA   and  CB  
REMARK    2  A    between atoms: CB   and  CG  
REMARK    3  A    between atoms: CG   and  CD  
REMARK    4  A    between atoms: CD   and  CE  
ROOT
ATOM      1  CA  LYS A 135      33.193  34.663   9.290  1.00 25.02     0.186 C 
ENDROOT
BRANCH   1   2
ATOM      2  CB  LYS A 135      32.060  35.360  10.034  1.00 26.63     0.034 C 
BRANCH   2   3
ATOM      3  CG  LYS A 135      30.709  34.735   9.797  1.00 29.45     0.005 C 
BRANCH   3   4
ATOM      4  CD  LYS A 135      30.471  34.522   8.310  1.00 32.00     0.041 C 
BRANCH   4   5
ATOM      5  CE  LYS A 135      29.030  34.830   7.952  1.00 34.25     0.338 C 
ATOM      6  NZ  LYS A 135      28.089  34.182   8.906  1.00 35.99     0.618 N 
ENDBRANCH   4   5
ENDBRANCH   3   4
ENDBRANCH   2   3
ENDBRANCH   1   2
END_RES LYS A 135
BEGIN_RES TYR A 136
REMARK  2 active torsions:
REMARK  status: ('A' for Active; 'I' for Inactive)
REMARK    5  A    between atoms: CA   and  CB  
REMARK    6  A    between atoms: CB   and  CG  
ROOT
ATOM      7  CA  TYR A 136      36.583  36.399   8.994  1.00 26.14     0.191 C 
ENDROOT
BRANCH   7   8
ATOM      8  CB  TYR A 136      37.367  36.835  10.240  1.00 28.16     0.060 C 
BRANCH   8   9
ATOM      9  CG  TYR A 136      37.105  38.273  10.616  1.00 31.88    -0.020 A 
ATOM     10  CD2 TYR A 136      36.148  39.034   9.942  1.00 32.67    -0.002 A 
ATOM     11  CE2 TYR A 136      35.914  40.369  10.299  1.00 33.89     0.027 A 
ATOM     12  CZ  TYR A 136      36.645  40.948  11.339  1.00 34.34     0.131 A 
ATOM     13  OH  TYR A 136      36.425  42.266  11.714  1.00 35.14    -0.190 OA
ATOM     14  CE1 TYR A 136      37.601  40.207  12.019  1.00 35.01     0.027 A 
ATOM     15  CD1 TYR A 136      37.830  38.880  11.650  1.00 33.57    -0.002 A 
ENDBRANCH   8   9
ENDBRANCH   7   8
END_RES TYR A 136
BEGIN_RES ASN A 133
REMARK  2 active torsions:
REMARK  status: ('A' for Active; 'I' for Inactive)
REMARK    7  A    between atoms: CA   and  CB  
REMARK    8  A    between atoms: CB   and  CG  
ROOT
ATOM     16  CA  ASN A 133      31.225  30.257  11.749  1.00 18.15     0.196 C 
ENDROOT
BRANCH  16  17
ATOM     17  CB  ASN A 133      30.092  31.240  11.460  1.00 18.27     0.126 C 
BRANCH  17  18
ATOM     18  CG  ASN A 133      28.756  30.578  11.320  1.00 18.94     0.276 C 
ATOM     19  OD1 ASN A 133      28.597  29.613  10.570  1.00 18.09    -0.269 OA
ATOM     20  ND2 ASN A 133      27.769  31.098  12.048  1.00 18.93    -0.107 N 
ENDBRANCH  17  18
ENDBRANCH  16  17
END_RES ASN A 133
