REMARK VINA RESULT:    -4.146      2.365      4.381
REMARK INTER + INTRA:          -7.976
REMARK INTER:                  -4.788
REMARK INTRA:                  -3.188
REMARK UNBOUND:                -3.103
REMARK SMILES Cc1cn(Cc2ccc(C#N)cc2)nn1
REMARK SMILES IDX 6 1 7 2 8 3 9 4 12 5 13 6 5 7 4 8 1 9 2 10 3 11 15 12 14 13
REMARK SMILES IDX 10 14 11 15
REMARK H PARENT
REMARK Flexibility Score: inf
ROOT
ATOM      1  C   UNL     1      32.929  36.658  13.285  1.00  0.00    -0.026 A 
ATOM      2  C   UNL     1      32.571  37.777  14.006  1.00  0.00     0.007 A 
ATOM      3  C   UNL     1      32.276  38.968  13.375  1.00  0.00     0.020 A 
ATOM      4  C   UNL     1      32.324  39.099  11.997  1.00  0.00     0.052 A 
ATOM      5  C   UNL     1      32.684  37.972  11.286  1.00  0.00     0.020 A 
ATOM      6  C   UNL     1      32.981  36.778  11.913  1.00  0.00     0.007 A 
ENDROOT
BRANCH   1   7
ATOM      7  C   UNL     1      33.250  35.362  13.966  1.00  0.00     0.181 C 
BRANCH   7   8
ATOM      8  N   UNL     1      34.697  35.136  13.977  1.00  0.00    -0.248 N 
ATOM      9  C   UNL     1      37.918  33.741  12.865  1.00  0.00     0.070 C 
ATOM     10  C   UNL     1      36.757  34.440  13.517  1.00  0.00     0.080 A 
ATOM     11  C   UNL     1      35.428  34.367  13.148  1.00  0.00     0.134 A 
ATOM     12  N   UNL     1      36.788  35.266  14.578  1.00  0.00    -0.136 NA
ATOM     13  N   UNL     1      35.547  35.663  14.827  1.00  0.00    -0.067 NA
ENDBRANCH   7   8
ENDBRANCH   1   7
BRANCH   4  14
ATOM     14  C   UNL     1      32.016  40.344  11.352  1.00  0.00     0.099 C 
ATOM     15  N   UNL     1      31.749  41.346  10.836  1.00  0.00    -0.192 NA
ENDBRANCH   4  14
TORSDOF 3
BEGIN_RES LYS A 135
REMARK  4 active torsions:
REMARK  status: ('A' for Active; 'I' for Inactive)
REMARK    1  A    between atoms: CA   and  CB  
REMARK    2  A    between atoms: CB   and  CG  
REMARK    3  A    between atoms: CG   and  CD  
REMARK    4  A    between atoms: CD   and  CE  
ROOT
ATOM      1  CA  LYS A 135      33.193  34.663   9.290  1.00 25.02     0.186 C 
ENDROOT
BRANCH   1   2
ATOM      2  CB  LYS A 135      32.060  35.360  10.034  1.00 26.63     0.034 C 
BRANCH   2   3
ATOM      3  CG  LYS A 135      30.715  34.713   9.826  1.00 29.45     0.005 C 
BRANCH   3   4
ATOM      4  CD  LYS A 135      30.363  34.669   8.347  1.00 32.00     0.041 C 
BRANCH   4   5
ATOM      5  CE  LYS A 135      28.859  34.622   8.159  1.00 34.25     0.338 C 
ATOM      6  NZ  LYS A 135      28.195  33.951   9.311  1.00 35.99     0.618 N 
ENDBRANCH   4   5
ENDBRANCH   3   4
ENDBRANCH   2   3
ENDBRANCH   1   2
END_RES LYS A 135
BEGIN_RES TYR A 136
REMARK  2 active torsions:
REMARK  status: ('A' for Active; 'I' for Inactive)
REMARK    5  A    between atoms: CA   and  CB  
REMARK    6  A    between atoms: CB   and  CG  
ROOT
ATOM      7  CA  TYR A 136      36.583  36.399   8.994  1.00 26.14     0.191 C 
ENDROOT
BRANCH   7   8
ATOM      8  CB  TYR A 136      37.367  36.835  10.240  1.00 28.16     0.060 C 
BRANCH   8   9
ATOM      9  CG  TYR A 136      36.755  38.035  10.920  1.00 31.88    -0.020 A 
ATOM     10  CD2 TYR A 136      36.590  38.074  12.307  1.00 32.67    -0.002 A 
ATOM     11  CE2 TYR A 136      36.018  39.192  12.929  1.00 33.89     0.027 A 
ATOM     12  CZ  TYR A 136      35.608  40.282  12.156  1.00 34.34     0.131 A 
ATOM     13  OH  TYR A 136      35.046  41.403  12.751  1.00 35.14    -0.190 OA
ATOM     14  CE1 TYR A 136      35.763  40.259  10.778  1.00 35.01     0.027 A 
ATOM     15  CD1 TYR A 136      36.328  39.137  10.169  1.00 33.57    -0.002 A 
ENDBRANCH   8   9
ENDBRANCH   7   8
END_RES TYR A 136
BEGIN_RES ASN A 133
REMARK  2 active torsions:
REMARK  status: ('A' for Active; 'I' for Inactive)
REMARK    7  A    between atoms: CA   and  CB  
REMARK    8  A    between atoms: CB   and  CG  
ROOT
ATOM     16  CA  ASN A 133      31.225  30.257  11.749  1.00 18.15     0.196 C 
ENDROOT
BRANCH  16  17
ATOM     17  CB  ASN A 133      30.092  31.240  11.460  1.00 18.27     0.126 C 
BRANCH  17  18
ATOM     18  CG  ASN A 133      28.757  30.578  11.314  1.00 18.94     0.276 C 
ATOM     19  OD1 ASN A 133      28.603  29.609  10.568  1.00 18.09    -0.269 OA
ATOM     20  ND2 ASN A 133      27.765  31.102  12.032  1.00 18.93    -0.107 N 
ENDBRANCH  17  18
ENDBRANCH  16  17
END_RES ASN A 133
