REMARK VINA RESULT:    -5.092      2.904      7.504
REMARK INTER + INTRA:          -8.653
REMARK INTER:                  -6.840
REMARK INTRA:                  -1.813
REMARK UNBOUND:                -3.263
REMARK SMILES Cc1cn(C2c3ccccc3-c3ccccc32)nn1
REMARK SMILES IDX 5 1 6 2 7 3 8 4 9 5 10 6 11 7 12 8 13 9 14 10 15 11 16 12
REMARK SMILES IDX 17 13 4 14 1 15 2 16 3 17 19 18 18 19
REMARK H PARENT
REMARK Flexibility Score: inf
ROOT
ATOM      1  C   UNL     1      27.654  34.352  10.773  1.00  0.00     0.170 C 
ATOM      2  C   UNL     1      28.257  34.640   9.464  1.00  0.00    -0.011 A 
ATOM      3  C   UNL     1      29.565  34.452   9.043  1.00  0.00     0.007 A 
ATOM      4  C   UNL     1      29.927  34.791   7.757  1.00  0.00     0.000 A 
ATOM      5  C   UNL     1      28.966  35.318   6.906  1.00  0.00     0.001 A 
ATOM      6  C   UNL     1      27.658  35.506   7.324  1.00  0.00     0.009 A 
ATOM      7  C   UNL     1      27.315  35.159   8.618  1.00  0.00    -0.012 A 
ATOM      8  C   UNL     1      26.063  35.229   9.346  1.00  0.00    -0.012 A 
ATOM      9  C   UNL     1      24.813  35.689   8.910  1.00  0.00     0.009 A 
ATOM     10  C   UNL     1      23.769  35.657   9.790  1.00  0.00     0.001 A 
ATOM     11  C   UNL     1      23.892  35.191  11.089  1.00  0.00     0.000 A 
ATOM     12  C   UNL     1      25.133  34.755  11.462  1.00  0.00     0.007 A 
ATOM     13  C   UNL     1      26.246  34.756  10.622  1.00  0.00    -0.011 A 
ENDROOT
BRANCH   1  14
ATOM     14  N   UNL     1      28.335  35.011  11.838  1.00  0.00    -0.240 N 
ATOM     15  C   UNL     1      30.401  35.113  14.825  1.00  0.00     0.070 C 
ATOM     16  C   UNL     1      29.555  35.380  13.641  1.00  0.00     0.080 A 
ATOM     17  C   UNL     1      29.054  34.405  12.791  1.00  0.00     0.135 A 
ATOM     18  N   UNL     1      29.115  36.544  13.161  1.00  0.00    -0.136 NA
ATOM     19  N   UNL     1      28.376  36.306  12.067  1.00  0.00    -0.066 NA
ENDBRANCH   1  14
TORSDOF 1
BEGIN_RES LYS A 135
REMARK  4 active torsions:
REMARK  status: ('A' for Active; 'I' for Inactive)
REMARK    1  A    between atoms: CA   and  CB  
REMARK    2  A    between atoms: CB   and  CG  
REMARK    3  A    between atoms: CG   and  CD  
REMARK    4  A    between atoms: CD   and  CE  
ROOT
ATOM      1  CA  LYS A 135      33.193  34.663   9.290  1.00 25.02     0.186 C 
ENDROOT
BRANCH   1   2
ATOM      2  CB  LYS A 135      32.060  35.360  10.034  1.00 26.63     0.034 C 
BRANCH   2   3
ATOM      3  CG  LYS A 135      32.389  35.679  11.470  1.00 29.45     0.005 C 
BRANCH   3   4
ATOM      4  CD  LYS A 135      32.524  37.181  11.668  1.00 32.00     0.041 C 
BRANCH   4   5
ATOM      5  CE  LYS A 135      32.651  37.515  13.142  1.00 34.25     0.338 C 
ATOM      6  NZ  LYS A 135      31.910  38.763  13.475  1.00 35.99     0.618 N 
ENDBRANCH   4   5
ENDBRANCH   3   4
ENDBRANCH   2   3
ENDBRANCH   1   2
END_RES LYS A 135
BEGIN_RES TYR A 136
REMARK  2 active torsions:
REMARK  status: ('A' for Active; 'I' for Inactive)
REMARK    5  A    between atoms: CA   and  CB  
REMARK    6  A    between atoms: CB   and  CG  
ROOT
ATOM      7  CA  TYR A 136      36.583  36.399   8.994  1.00 26.14     0.191 C 
ENDROOT
BRANCH   7   8
ATOM      8  CB  TYR A 136      37.367  36.835  10.240  1.00 28.16     0.060 C 
BRANCH   8   9
ATOM      9  CG  TYR A 136      36.653  37.903  11.031  1.00 31.88    -0.020 A 
ATOM     10  CD2 TYR A 136      36.750  37.960  12.423  1.00 32.67    -0.002 A 
ATOM     11  CE2 TYR A 136      36.081  38.955  13.148  1.00 33.89     0.027 A 
ATOM     12  CZ  TYR A 136      35.307  39.903  12.474  1.00 34.34     0.131 A 
ATOM     13  OH  TYR A 136      34.642  40.902  13.170  1.00 35.14    -0.190 OA
ATOM     14  CE1 TYR A 136      35.199  39.862  11.091  1.00 35.01     0.027 A 
ATOM     15  CD1 TYR A 136      35.865  38.862  10.380  1.00 33.57    -0.002 A 
ENDBRANCH   8   9
ENDBRANCH   7   8
END_RES TYR A 136
BEGIN_RES ASN A 133
REMARK  2 active torsions:
REMARK  status: ('A' for Active; 'I' for Inactive)
REMARK    7  A    between atoms: CA   and  CB  
REMARK    8  A    between atoms: CB   and  CG  
ROOT
ATOM     16  CA  ASN A 133      31.225  30.257  11.749  1.00 18.15     0.196 C 
ENDROOT
BRANCH  16  17
ATOM     17  CB  ASN A 133      30.092  31.240  11.460  1.00 18.27     0.126 C 
BRANCH  17  18
ATOM     18  CG  ASN A 133      28.753  30.581  11.343  1.00 18.94     0.276 C 
ATOM     19  OD1 ASN A 133      28.577  29.622  10.588  1.00 18.09    -0.269 OA
ATOM     20  ND2 ASN A 133      27.782  31.096  12.096  1.00 18.93    -0.107 N 
ENDBRANCH  17  18
ENDBRANCH  16  17
END_RES ASN A 133
