REMARK VINA RESULT:    -3.273      7.317     15.260
REMARK INTER + INTRA:          -7.422
REMARK INTER:                  -3.860
REMARK INTRA:                  -3.563
REMARK UNBOUND:                -3.384
REMARK SMILES COCC(C(N)=O)n1cc(C)nn1
REMARK SMILES IDX 3 1 4 2 8 3 11 4 10 5 9 6 12 7 13 8 5 9 7 10 6 11 2 14 1 15
REMARK H PARENT 6 12 6 13
REMARK Flexibility Score: inf
ROOT
ATOM      1  C   UNL     1      29.909  27.428  23.033  1.00  0.00     0.197 C 
ENDROOT
BRANCH   1   2
ATOM      2  C   UNL     1      30.122  27.041  21.574  1.00  0.00     0.223 C 
BRANCH   2   3
ATOM      3  N   UNL     1      29.227  27.768  20.704  1.00  0.00    -0.237 N 
ATOM      4  C   UNL     1      26.375  28.468  18.547  1.00  0.00     0.070 C 
ATOM      5  C   UNL     1      27.618  28.442  19.380  1.00  0.00     0.080 A 
ATOM      6  C   UNL     1      28.094  27.377  20.102  1.00  0.00     0.135 A 
ATOM      7  N   UNL     1      28.495  29.447  19.578  1.00  0.00    -0.136 NA
ATOM      8  N   UNL     1      29.451  29.041  20.366  1.00  0.00    -0.066 NA
ENDBRANCH   2   3
BRANCH   2   9
ATOM      9  C   UNL     1      31.535  27.246  21.245  1.00  0.00     0.244 C 
ATOM     10  O   UNL     1      32.370  27.376  22.176  1.00  0.00    -0.273 OA
ATOM     11  N   UNL     1      31.986  27.298  19.903  1.00  0.00    -0.368 N 
ATOM     12  H   UNL     1      31.454  26.903  19.093  1.00  0.00     0.159 HD
ATOM     13  H   UNL     1      32.906  27.751  19.635  1.00  0.00     0.159 HD
ENDBRANCH   2   9
ENDBRANCH   1   2
BRANCH   1  14
ATOM     14  O   UNL     1      28.960  26.565  23.570  1.00  0.00    -0.382 OA
ATOM     15  C   UNL     1      29.615  25.462  24.144  1.00  0.00     0.195 C 
ENDBRANCH   1  14
TORSDOF 4
BEGIN_RES LYS A 135
REMARK  4 active torsions:
REMARK  status: ('A' for Active; 'I' for Inactive)
REMARK    1  A    between atoms: CA   and  CB  
REMARK    2  A    between atoms: CB   and  CG  
REMARK    3  A    between atoms: CG   and  CD  
REMARK    4  A    between atoms: CD   and  CE  
ROOT
ATOM      1  CA  LYS A 135      33.193  34.663   9.290  1.00 25.02     0.186 C 
ENDROOT
BRANCH   1   2
ATOM      2  CB  LYS A 135      32.060  35.360  10.034  1.00 26.63     0.034 C 
BRANCH   2   3
ATOM      3  CG  LYS A 135      30.840  35.604   9.183  1.00 29.45     0.005 C 
BRANCH   3   4
ATOM      4  CD  LYS A 135      30.263  34.288   8.684  1.00 32.00     0.041 C 
BRANCH   4   5
ATOM      5  CE  LYS A 135      28.761  34.401   8.502  1.00 34.25     0.338 C 
ATOM      6  NZ  LYS A 135      28.426  35.210   7.298  1.00 35.99     0.618 N 
ENDBRANCH   4   5
ENDBRANCH   3   4
ENDBRANCH   2   3
ENDBRANCH   1   2
END_RES LYS A 135
BEGIN_RES TYR A 136
REMARK  2 active torsions:
REMARK  status: ('A' for Active; 'I' for Inactive)
REMARK    5  A    between atoms: CA   and  CB  
REMARK    6  A    between atoms: CB   and  CG  
ROOT
ATOM      7  CA  TYR A 136      36.583  36.399   8.994  1.00 26.14     0.191 C 
ENDROOT
BRANCH   7   8
ATOM      8  CB  TYR A 136      37.367  36.835  10.240  1.00 28.16     0.060 C 
BRANCH   8   9
ATOM      9  CG  TYR A 136      37.184  38.299  10.558  1.00 31.88    -0.020 A 
ATOM     10  CD2 TYR A 136      37.743  38.865  11.706  1.00 32.67    -0.002 A 
ATOM     11  CE2 TYR A 136      37.565  40.225  11.993  1.00 33.89     0.027 A 
ATOM     12  CZ  TYR A 136      36.821  41.026  11.124  1.00 34.34     0.131 A 
ATOM     13  OH  TYR A 136      36.637  42.377  11.385  1.00 35.14    -0.190 OA
ATOM     14  CE1 TYR A 136      36.257  40.480   9.980  1.00 35.01     0.027 A 
ATOM     15  CD1 TYR A 136      36.435  39.123   9.708  1.00 33.57    -0.002 A 
ENDBRANCH   8   9
ENDBRANCH   7   8
END_RES TYR A 136
BEGIN_RES ASN A 133
REMARK  2 active torsions:
REMARK  status: ('A' for Active; 'I' for Inactive)
REMARK    7  A    between atoms: CA   and  CB  
REMARK    8  A    between atoms: CB   and  CG  
ROOT
ATOM     16  CA  ASN A 133      31.225  30.257  11.749  1.00 18.15     0.196 C 
ENDROOT
BRANCH  16  17
ATOM     17  CB  ASN A 133      30.092  31.240  11.460  1.00 18.27     0.126 C 
BRANCH  17  18
ATOM     18  CG  ASN A 133      28.749  30.585  11.371  1.00 18.94     0.276 C 
ATOM     19  OD1 ASN A 133      28.563  29.604  10.649  1.00 18.09    -0.269 OA
ATOM     20  ND2 ASN A 133      27.785  31.129  12.113  1.00 18.93    -0.107 N 
ENDBRANCH  17  18
ENDBRANCH  16  17
END_RES ASN A 133
