REMARK VINA RESULT:    -2.706      8.166     12.408
REMARK INTER + INTRA:          -6.872
REMARK INTER:                  -3.498
REMARK INTRA:                  -3.374
REMARK UNBOUND:                -3.374
REMARK SMILES CCN(CC)CCn1cc(C)nn1
REMARK SMILES IDX 6 1 7 2 8 3 11 4 10 5 9 6 12 7 13 8 3 9 2 10 1 11 4 12 5 13
REMARK H PARENT
REMARK Flexibility Score: inf
ROOT
ATOM      1  C   UNL     1      30.713  33.451  15.479  1.00  0.00     0.108 C 
ENDROOT
BRANCH   1   2
ATOM      2  C   UNL     1      31.049  32.029  15.727  1.00  0.00     0.161 C 
BRANCH   2   3
ATOM      3  N   UNL     1      29.922  31.317  16.369  1.00  0.00    -0.251 N 
ATOM      4  C   UNL     1      26.901  29.265  16.592  1.00  0.00     0.070 C 
ATOM      5  C   UNL     1      28.103  30.102  16.735  1.00  0.00     0.080 A 
ATOM      6  C   UNL     1      28.955  30.599  15.772  1.00  0.00     0.134 A 
ATOM      7  N   UNL     1      28.594  30.544  17.902  1.00  0.00    -0.136 NA
ATOM      8  N   UNL     1      29.671  31.263  17.676  1.00  0.00    -0.067 NA
ENDBRANCH   2   3
ENDBRANCH   1   2
BRANCH   1   9
ATOM      9  N   UNL     1      30.835  33.972  14.181  1.00  0.00    -0.302 NA
BRANCH   9  10
ATOM     10  C   UNL     1      29.784  33.834  13.254  1.00  0.00     0.081 C 
ATOM     11  C   UNL     1      28.473  34.192  13.867  1.00  0.00     0.021 C 
ENDBRANCH   9  10
BRANCH   9  12
ATOM     12  C   UNL     1      31.551  35.234  14.136  1.00  0.00     0.081 C 
ATOM     13  C   UNL     1      32.049  35.570  12.762  1.00  0.00     0.021 C 
ENDBRANCH   9  12
ENDBRANCH   1   9
TORSDOF 5
BEGIN_RES LYS A 135
REMARK  4 active torsions:
REMARK  status: ('A' for Active; 'I' for Inactive)
REMARK    1  A    between atoms: CA   and  CB  
REMARK    2  A    between atoms: CB   and  CG  
REMARK    3  A    between atoms: CG   and  CD  
REMARK    4  A    between atoms: CD   and  CE  
ROOT
ATOM      1  CA  LYS A 135      33.193  34.663   9.290  1.00 25.02     0.186 C 
ENDROOT
BRANCH   1   2
ATOM      2  CB  LYS A 135      32.060  35.360  10.034  1.00 26.63     0.034 C 
BRANCH   2   3
ATOM      3  CG  LYS A 135      30.797  35.491   9.222  1.00 29.45     0.005 C 
BRANCH   3   4
ATOM      4  CD  LYS A 135      30.094  34.148   9.102  1.00 32.00     0.041 C 
BRANCH   4   5
ATOM      5  CE  LYS A 135      28.641  34.341   8.713  1.00 34.25     0.338 C 
ATOM      6  NZ  LYS A 135      27.731  33.708   9.708  1.00 35.99     0.618 N 
ENDBRANCH   4   5
ENDBRANCH   3   4
ENDBRANCH   2   3
ENDBRANCH   1   2
END_RES LYS A 135
BEGIN_RES TYR A 136
REMARK  2 active torsions:
REMARK  status: ('A' for Active; 'I' for Inactive)
REMARK    5  A    between atoms: CA   and  CB  
REMARK    6  A    between atoms: CB   and  CG  
ROOT
ATOM      7  CA  TYR A 136      36.583  36.399   8.994  1.00 26.14     0.191 C 
ENDROOT
BRANCH   7   8
ATOM      8  CB  TYR A 136      37.367  36.835  10.240  1.00 28.16     0.060 C 
BRANCH   8   9
ATOM      9  CG  TYR A 136      37.203  38.304  10.544  1.00 31.88    -0.020 A 
ATOM     10  CD2 TYR A 136      38.251  39.205  10.344  1.00 32.67    -0.002 A 
ATOM     11  CE2 TYR A 136      38.088  40.568  10.631  1.00 33.89     0.027 A 
ATOM     12  CZ  TYR A 136      36.866  41.032  11.124  1.00 34.34     0.131 A 
ATOM     13  OH  TYR A 136      36.681  42.377  11.409  1.00 35.14    -0.190 OA
ATOM     14  CE1 TYR A 136      35.815  40.150  11.330  1.00 35.01     0.027 A 
ATOM     15  CD1 TYR A 136      35.991  38.795  11.047  1.00 33.57    -0.002 A 
ENDBRANCH   8   9
ENDBRANCH   7   8
END_RES TYR A 136
BEGIN_RES ASN A 133
REMARK  2 active torsions:
REMARK  status: ('A' for Active; 'I' for Inactive)
REMARK    7  A    between atoms: CA   and  CB  
REMARK    8  A    between atoms: CB   and  CG  
ROOT
ATOM     16  CA  ASN A 133      31.225  30.257  11.749  1.00 18.15     0.196 C 
ENDROOT
BRANCH  16  17
ATOM     17  CB  ASN A 133      30.092  31.240  11.460  1.00 18.27     0.126 C 
BRANCH  17  18
ATOM     18  CG  ASN A 133      28.750  30.583  11.361  1.00 18.94     0.276 C 
ATOM     19  OD1 ASN A 133      28.564  29.621  10.614  1.00 18.09    -0.269 OA
ATOM     20  ND2 ASN A 133      27.788  31.105  12.121  1.00 18.93    -0.107 N 
ENDBRANCH  17  18
ENDBRANCH  16  17
END_RES ASN A 133
