REMARK VINA RESULT:    -3.992      3.234      8.219
REMARK INTER + INTRA:          -7.519
REMARK INTER:                  -5.907
REMARK INTRA:                  -1.612
REMARK UNBOUND:                -3.060
REMARK SMILES Cc1cn(Cc2ccccc2)nn1
REMARK SMILES IDX 5 1 4 2 1 3 2 4 3 5 13 6 12 7 6 8 7 9 11 10 8 11 10 12 9 13
REMARK H PARENT
REMARK Flexibility Score: inf
ROOT
ATOM      1  C   UNL     1      27.841  35.819   6.268  1.00  0.00     0.181 C 
ENDROOT
BRANCH   1   2
ATOM      2  N   UNL     1      28.234  37.217   6.325  1.00  0.00    -0.248 N 
ATOM      3  C   UNL     1      28.393  40.600   7.597  1.00  0.00     0.070 C 
ATOM      4  C   UNL     1      28.493  39.297   6.878  1.00  0.00     0.080 A 
ATOM      5  C   UNL     1      27.875  38.115   7.237  1.00  0.00     0.134 A 
ATOM      6  N   UNL     1      29.201  39.060   5.760  1.00  0.00    -0.136 NA
ATOM      7  N   UNL     1      29.028  37.791   5.447  1.00  0.00    -0.067 NA
ENDBRANCH   1   2
BRANCH   1   8
ATOM      8  C   UNL     1      28.438  35.124   7.448  1.00  0.00    -0.026 A 
ATOM      9  C   UNL     1      27.632  34.600   8.442  1.00  0.00     0.005 A 
ATOM     10  C   UNL     1      29.803  34.974   7.601  1.00  0.00     0.005 A 
ATOM     11  C   UNL     1      28.182  33.959   9.532  1.00  0.00     0.000 A 
ATOM     12  C   UNL     1      30.358  34.333   8.690  1.00  0.00     0.000 A 
ATOM     13  C   UNL     1      29.552  33.812   9.680  1.00  0.00     0.000 A 
ENDBRANCH   1   8
TORSDOF 2
BEGIN_RES LYS A 135
REMARK  4 active torsions:
REMARK  status: ('A' for Active; 'I' for Inactive)
REMARK    1  A    between atoms: CA   and  CB  
REMARK    2  A    between atoms: CB   and  CG  
REMARK    3  A    between atoms: CG   and  CD  
REMARK    4  A    between atoms: CD   and  CE  
ROOT
ATOM      1  CA  LYS A 135      33.193  34.663   9.290  1.00 25.02     0.186 C 
ENDROOT
BRANCH   1   2
ATOM      2  CB  LYS A 135      32.060  35.360  10.034  1.00 26.63     0.034 C 
BRANCH   2   3
ATOM      3  CG  LYS A 135      32.494  36.004  11.325  1.00 29.45     0.005 C 
BRANCH   3   4
ATOM      4  CD  LYS A 135      31.335  36.751  11.968  1.00 32.00     0.041 C 
BRANCH   4   5
ATOM      5  CE  LYS A 135      31.147  36.307  13.406  1.00 34.25     0.338 C 
ATOM      6  NZ  LYS A 135      32.227  35.370  13.823  1.00 35.99     0.618 N 
ENDBRANCH   4   5
ENDBRANCH   3   4
ENDBRANCH   2   3
ENDBRANCH   1   2
END_RES LYS A 135
BEGIN_RES TYR A 136
REMARK  2 active torsions:
REMARK  status: ('A' for Active; 'I' for Inactive)
REMARK    5  A    between atoms: CA   and  CB  
REMARK    6  A    between atoms: CB   and  CG  
ROOT
ATOM      7  CA  TYR A 136      36.583  36.399   8.994  1.00 26.14     0.191 C 
ENDROOT
BRANCH   7   8
ATOM      8  CB  TYR A 136      37.367  36.835  10.240  1.00 28.16     0.060 C 
BRANCH   8   9
ATOM      9  CG  TYR A 136      36.466  37.257  11.374  1.00 31.88    -0.020 A 
ATOM     10  CD2 TYR A 136      36.389  36.511  12.552  1.00 32.67    -0.002 A 
ATOM     11  CE2 TYR A 136      35.547  36.910  13.600  1.00 33.89     0.027 A 
ATOM     12  CZ  TYR A 136      34.775  38.067  13.466  1.00 34.34     0.131 A 
ATOM     13  OH  TYR A 136      33.940  38.486  14.493  1.00 35.14    -0.190 OA
ATOM     14  CE1 TYR A 136      34.839  38.820  12.303  1.00 35.01     0.027 A 
ATOM     15  CD1 TYR A 136      35.676  38.408  11.264  1.00 33.57    -0.002 A 
ENDBRANCH   8   9
ENDBRANCH   7   8
END_RES TYR A 136
BEGIN_RES ASN A 133
REMARK  2 active torsions:
REMARK  status: ('A' for Active; 'I' for Inactive)
REMARK    7  A    between atoms: CA   and  CB  
REMARK    8  A    between atoms: CB   and  CG  
ROOT
ATOM     16  CA  ASN A 133      31.225  30.257  11.749  1.00 18.15     0.196 C 
ENDROOT
BRANCH  16  17
ATOM     17  CB  ASN A 133      30.092  31.240  11.460  1.00 18.27     0.126 C 
BRANCH  17  18
ATOM     18  CG  ASN A 133      28.757  30.578  11.314  1.00 18.94     0.276 C 
ATOM     19  OD1 ASN A 133      28.604  29.607  10.570  1.00 18.09    -0.269 OA
ATOM     20  ND2 ASN A 133      27.764  31.104  12.031  1.00 18.93    -0.107 N 
ENDBRANCH  17  18
ENDBRANCH  16  17
END_RES ASN A 133
