REMARK VINA RESULT:    -4.128      2.692      3.798
REMARK INTER + INTRA:          -7.652
REMARK INTER:                  -4.412
REMARK INTRA:                  -3.240
REMARK UNBOUND:                -3.283
REMARK SMILES Cc1cn(C23CC4CC(CC(C4)C2)C3)nn1
REMARK SMILES IDX 5 1 14 2 9 3 8 4 7 5 12 6 11 7 10 8 13 9 6 10 4 11 1 12 2 13
REMARK SMILES IDX 3 14 16 15 15 16
REMARK H PARENT
REMARK Flexibility Score: inf
ROOT
ATOM      1  C   UNL     1      30.577  33.499  15.363  1.00  0.00     0.065 C 
ATOM      2  C   UNL     1      31.286  32.163  15.550  1.00  0.00     0.034 C 
ATOM      3  C   UNL     1      30.423  31.282  16.447  1.00  0.00    -0.008 C 
ATOM      4  C   UNL     1      29.107  31.100  15.744  1.00  0.00     0.007 C 
ATOM      5  C   UNL     1      28.408  32.428  15.647  1.00  0.00    -0.008 C 
ATOM      6  C   UNL     1      28.242  33.096  16.973  1.00  0.00     0.007 C 
ATOM      7  C   UNL     1      29.597  33.330  17.595  1.00  0.00    -0.008 C 
ATOM      8  C   UNL     1      30.243  31.955  17.777  1.00  0.00     0.007 C 
ATOM      9  C   UNL     1      30.504  34.138  16.730  1.00  0.00     0.034 C 
ATOM     10  C   UNL     1      29.219  33.316  14.734  1.00  0.00     0.034 C 
ENDROOT
BRANCH   1  11
ATOM     11  N   UNL     1      31.447  34.330  14.543  1.00  0.00    -0.246 N 
ATOM     12  C   UNL     1      34.717  35.703  13.797  1.00  0.00     0.070 C 
ATOM     13  C   UNL     1      33.299  35.301  13.863  1.00  0.00     0.080 A 
ATOM     14  C   UNL     1      32.760  34.461  14.803  1.00  0.00     0.134 A 
ATOM     15  N   UNL     1      32.265  35.651  13.057  1.00  0.00    -0.136 NA
ATOM     16  N   UNL     1      31.167  35.052  13.492  1.00  0.00    -0.067 NA
ENDBRANCH   1  11
TORSDOF 1
BEGIN_RES LYS A 135
REMARK  4 active torsions:
REMARK  status: ('A' for Active; 'I' for Inactive)
REMARK    1  A    between atoms: CA   and  CB  
REMARK    2  A    between atoms: CB   and  CG  
REMARK    3  A    between atoms: CG   and  CD  
REMARK    4  A    between atoms: CD   and  CE  
ROOT
ATOM      1  CA  LYS A 135      33.193  34.663   9.290  1.00 25.02     0.186 C 
ENDROOT
BRANCH   1   2
ATOM      2  CB  LYS A 135      32.060  35.360  10.034  1.00 26.63     0.034 C 
BRANCH   2   3
ATOM      3  CG  LYS A 135      30.725  34.680   9.873  1.00 29.45     0.005 C 
BRANCH   3   4
ATOM      4  CD  LYS A 135      30.361  34.553   8.402  1.00 32.00     0.041 C 
BRANCH   4   5
ATOM      5  CE  LYS A 135      28.855  34.546   8.224  1.00 34.25     0.338 C 
ATOM      6  NZ  LYS A 135      28.182  33.885   9.376  1.00 35.99     0.618 N 
ENDBRANCH   4   5
ENDBRANCH   3   4
ENDBRANCH   2   3
ENDBRANCH   1   2
END_RES LYS A 135
BEGIN_RES TYR A 136
REMARK  2 active torsions:
REMARK  status: ('A' for Active; 'I' for Inactive)
REMARK    5  A    between atoms: CA   and  CB  
REMARK    6  A    between atoms: CB   and  CG  
ROOT
ATOM      7  CA  TYR A 136      36.583  36.399   8.994  1.00 26.14     0.191 C 
ENDROOT
BRANCH   7   8
ATOM      8  CB  TYR A 136      37.367  36.835  10.240  1.00 28.16     0.060 C 
BRANCH   8   9
ATOM      9  CG  TYR A 136      36.852  38.126  10.828  1.00 31.88    -0.020 A 
ATOM     10  CD2 TYR A 136      36.270  39.106  10.021  1.00 32.67    -0.002 A 
ATOM     11  CE2 TYR A 136      35.796  40.302  10.576  1.00 33.89     0.027 A 
ATOM     12  CZ  TYR A 136      35.905  40.520  11.952  1.00 34.34     0.131 A 
ATOM     13  OH  TYR A 136      35.436  41.694  12.525  1.00 35.14    -0.190 OA
ATOM     14  CE1 TYR A 136      36.482  39.557  12.768  1.00 35.01     0.027 A 
ATOM     15  CD1 TYR A 136      36.956  38.373  12.202  1.00 33.57    -0.002 A 
ENDBRANCH   8   9
ENDBRANCH   7   8
END_RES TYR A 136
BEGIN_RES ASN A 133
REMARK  2 active torsions:
REMARK  status: ('A' for Active; 'I' for Inactive)
REMARK    7  A    between atoms: CA   and  CB  
REMARK    8  A    between atoms: CB   and  CG  
ROOT
ATOM     16  CA  ASN A 133      31.225  30.257  11.749  1.00 18.15     0.196 C 
ENDROOT
BRANCH  16  17
ATOM     17  CB  ASN A 133      30.092  31.240  11.460  1.00 18.27     0.126 C 
BRANCH  17  18
ATOM     18  CG  ASN A 133      28.747  30.587  11.387  1.00 18.94     0.276 C 
ATOM     19  OD1 ASN A 133      28.550  29.610  10.662  1.00 18.09    -0.269 OA
ATOM     20  ND2 ASN A 133      27.794  31.128  12.145  1.00 18.93    -0.107 N 
ENDBRANCH  17  18
ENDBRANCH  16  17
END_RES ASN A 133
