REMARK VINA RESULT:    -3.901      7.993     14.120
REMARK INTER + INTRA:          -7.377
REMARK INTER:                  -4.182
REMARK INTRA:                  -3.195
REMARK UNBOUND:                -3.249
REMARK SMILES Cc1cn(C2CCN(C)CC2)nn1
REMARK SMILES IDX 5 1 6 2 7 3 8 4 9 5 10 6 11 7 4 8 1 9 2 10 3 11 13 12 12 13
REMARK H PARENT
REMARK Flexibility Score: inf
ROOT
ATOM      1  C   UNL     1      36.169  34.510  13.692  1.00  0.00     0.111 C 
ATOM      2  C   UNL     1      36.650  33.946  12.388  1.00  0.00     0.043 C 
ATOM      3  C   UNL     1      37.994  34.611  12.083  1.00  0.00     0.086 C 
ATOM      4  N   UNL     1      38.835  34.383  13.197  1.00  0.00    -0.306 NA
ATOM      5  C   UNL     1      40.207  34.194  12.943  1.00  0.00     0.105 C 
ATOM      6  C   UNL     1      38.475  35.019  14.404  1.00  0.00     0.086 C 
ATOM      7  C   UNL     1      37.062  35.592  14.240  1.00  0.00     0.043 C 
ENDROOT
BRANCH   1   8
ATOM      8  N   UNL     1      34.843  35.053  13.472  1.00  0.00    -0.249 N 
ATOM      9  C   UNL     1      32.440  37.274  11.960  1.00  0.00     0.070 C 
ATOM     10  C   UNL     1      33.183  36.250  12.731  1.00  0.00     0.080 A 
ATOM     11  C   UNL     1      34.538  36.046  12.640  1.00  0.00     0.134 A 
ATOM     12  N   UNL     1      32.702  35.370  13.620  1.00  0.00    -0.136 NA
ATOM     13  N   UNL     1      33.730  34.666  14.047  1.00  0.00    -0.067 NA
ENDBRANCH   1   8
TORSDOF 1
BEGIN_RES LYS A 135
REMARK  4 active torsions:
REMARK  status: ('A' for Active; 'I' for Inactive)
REMARK    1  A    between atoms: CA   and  CB  
REMARK    2  A    between atoms: CB   and  CG  
REMARK    3  A    between atoms: CG   and  CD  
REMARK    4  A    between atoms: CD   and  CE  
ROOT
ATOM      1  CA  LYS A 135      33.193  34.663   9.290  1.00 25.02     0.186 C 
ENDROOT
BRANCH   1   2
ATOM      2  CB  LYS A 135      32.060  35.360  10.034  1.00 26.63     0.034 C 
BRANCH   2   3
ATOM      3  CG  LYS A 135      30.705  34.754   9.774  1.00 29.45     0.005 C 
BRANCH   3   4
ATOM      4  CD  LYS A 135      30.470  34.587   8.280  1.00 32.00     0.041 C 
BRANCH   4   5
ATOM      5  CE  LYS A 135      29.019  34.863   7.935  1.00 34.25     0.338 C 
ATOM      6  NZ  LYS A 135      28.903  35.558   6.623  1.00 35.99     0.618 N 
ENDBRANCH   4   5
ENDBRANCH   3   4
ENDBRANCH   2   3
ENDBRANCH   1   2
END_RES LYS A 135
BEGIN_RES TYR A 136
REMARK  2 active torsions:
REMARK  status: ('A' for Active; 'I' for Inactive)
REMARK    5  A    between atoms: CA   and  CB  
REMARK    6  A    between atoms: CB   and  CG  
ROOT
ATOM      7  CA  TYR A 136      36.583  36.399   8.994  1.00 26.14     0.191 C 
ENDROOT
BRANCH   7   8
ATOM      8  CB  TYR A 136      37.367  36.835  10.240  1.00 28.16     0.060 C 
BRANCH   8   9
ATOM      9  CG  TYR A 136      36.892  38.157  10.791  1.00 31.88    -0.020 A 
ATOM     10  CD2 TYR A 136      37.317  38.614  12.041  1.00 32.67    -0.002 A 
ATOM     11  CE2 TYR A 136      36.868  39.842  12.545  1.00 33.89     0.027 A 
ATOM     12  CZ  TYR A 136      35.986  40.621  11.791  1.00 34.34     0.131 A 
ATOM     13  OH  TYR A 136      35.535  41.844  12.267  1.00 35.14    -0.190 OA
ATOM     14  CE1 TYR A 136      35.553  40.182  10.548  1.00 35.01     0.027 A 
ATOM     15  CD1 TYR A 136      36.002  38.954  10.060  1.00 33.57    -0.002 A 
ENDBRANCH   8   9
ENDBRANCH   7   8
END_RES TYR A 136
BEGIN_RES ASN A 133
REMARK  2 active torsions:
REMARK  status: ('A' for Active; 'I' for Inactive)
REMARK    7  A    between atoms: CA   and  CB  
REMARK    8  A    between atoms: CB   and  CG  
ROOT
ATOM     16  CA  ASN A 133      31.225  30.257  11.749  1.00 18.15     0.196 C 
ENDROOT
BRANCH  16  17
ATOM     17  CB  ASN A 133      30.092  31.240  11.460  1.00 18.27     0.126 C 
BRANCH  17  18
ATOM     18  CG  ASN A 133      28.752  30.582  11.346  1.00 18.94     0.276 C 
ATOM     19  OD1 ASN A 133      28.579  29.609  10.609  1.00 18.09    -0.269 OA
ATOM     20  ND2 ASN A 133      27.777  31.112  12.084  1.00 18.93    -0.107 N 
ENDBRANCH  17  18
ENDBRANCH  16  17
END_RES ASN A 133
