REMARK VINA RESULT:    -4.803      5.575      7.768
REMARK INTER + INTRA:          -6.726
REMARK INTER:                  -3.523
REMARK INTRA:                  -3.203
REMARK UNBOUND:                -1.642
REMARK SMILES Cc1cn(C2CCCCC2)nn1
REMARK SMILES IDX 5 1 6 2 7 3 8 4 9 5 10 6 4 7 1 8 2 9 3 10 12 11 11 12
REMARK H PARENT
REMARK Flexibility Score: inf
ROOT
ATOM      1  C   UNL     1      28.982  31.465  15.265  1.00  0.00     0.109 C 
ATOM      2  C   UNL     1      30.113  31.305  16.227  1.00  0.00     0.027 C 
ATOM      3  C   UNL     1      31.200  32.340  16.046  1.00  0.00     0.002 C 
ATOM      4  C   UNL     1      30.652  33.717  16.333  1.00  0.00     0.000 C 
ATOM      5  C   UNL     1      29.168  33.781  16.166  1.00  0.00     0.002 C 
ATOM      6  C   UNL     1      28.659  32.919  15.027  1.00  0.00     0.027 C 
ENDROOT
BRANCH   1   7
ATOM      7  N   UNL     1      27.824  30.731  15.747  1.00  0.00    -0.249 N 
ATOM      8  C   UNL     1      25.906  28.337  17.709  1.00  0.00     0.070 C 
ATOM      9  C   UNL     1      26.411  29.389  16.777  1.00  0.00     0.080 A 
ATOM     10  C   UNL     1      27.723  29.781  16.662  1.00  0.00     0.134 A 
ATOM     11  N   UNL     1      25.732  30.141  15.897  1.00  0.00    -0.136 NA
ATOM     12  N   UNL     1      26.585  30.940  15.286  1.00  0.00    -0.067 NA
ENDBRANCH   1   7
TORSDOF 1
BEGIN_RES LYS A 135
REMARK  4 active torsions:
REMARK  status: ('A' for Active; 'I' for Inactive)
REMARK    1  A    between atoms: CA   and  CB  
REMARK    2  A    between atoms: CB   and  CG  
REMARK    3  A    between atoms: CG   and  CD  
REMARK    4  A    between atoms: CD   and  CE  
ROOT
ATOM      1  CA  LYS A 135      33.193  34.663   9.290  1.00 25.02     0.186 C 
ENDROOT
BRANCH   1   2
ATOM      2  CB  LYS A 135      32.060  35.360  10.034  1.00 26.63     0.034 C 
BRANCH   2   3
ATOM      3  CG  LYS A 135      30.804  35.509   9.215  1.00 29.45     0.005 C 
BRANCH   3   4
ATOM      4  CD  LYS A 135      30.131  34.160   9.014  1.00 32.00     0.041 C 
BRANCH   4   5
ATOM      5  CE  LYS A 135      28.681  34.343   8.610  1.00 34.25     0.338 C 
ATOM      6  NZ  LYS A 135      27.764  33.734   9.613  1.00 35.99     0.618 N 
ENDBRANCH   4   5
ENDBRANCH   3   4
ENDBRANCH   2   3
ENDBRANCH   1   2
END_RES LYS A 135
BEGIN_RES TYR A 136
REMARK  2 active torsions:
REMARK  status: ('A' for Active; 'I' for Inactive)
REMARK    5  A    between atoms: CA   and  CB  
REMARK    6  A    between atoms: CB   and  CG  
ROOT
ATOM      7  CA  TYR A 136      36.583  36.399   8.994  1.00 26.14     0.191 C 
ENDROOT
BRANCH   7   8
ATOM      8  CB  TYR A 136      37.367  36.835  10.240  1.00 28.16     0.060 C 
BRANCH   8   9
ATOM      9  CG  TYR A 136      37.173  38.296  10.566  1.00 31.88    -0.020 A 
ATOM     10  CD2 TYR A 136      37.016  39.247   9.556  1.00 32.67    -0.002 A 
ATOM     11  CE2 TYR A 136      36.838  40.602   9.869  1.00 33.89     0.027 A 
ATOM     12  CZ  TYR A 136      36.818  41.008  11.205  1.00 34.34     0.131 A 
ATOM     13  OH  TYR A 136      36.636  42.343  11.539  1.00 35.14    -0.190 OA
ATOM     14  CE1 TYR A 136      36.974  40.076  12.222  1.00 35.01     0.027 A 
ATOM     15  CD1 TYR A 136      37.157  38.731  11.897  1.00 33.57    -0.002 A 
ENDBRANCH   8   9
ENDBRANCH   7   8
END_RES TYR A 136
BEGIN_RES ASN A 133
REMARK  2 active torsions:
REMARK  status: ('A' for Active; 'I' for Inactive)
REMARK    7  A    between atoms: CA   and  CB  
REMARK    8  A    between atoms: CB   and  CG  
ROOT
ATOM     16  CA  ASN A 133      31.225  30.257  11.749  1.00 18.15     0.196 C 
ENDROOT
BRANCH  16  17
ATOM     17  CB  ASN A 133      30.092  31.240  11.460  1.00 18.27     0.126 C 
BRANCH  17  18
ATOM     18  CG  ASN A 133      28.762  30.575  11.284  1.00 18.94     0.276 C 
ATOM     19  OD1 ASN A 133      28.636  29.581  10.566  1.00 18.09    -0.269 OA
ATOM     20  ND2 ASN A 133      27.744  31.125  11.944  1.00 18.93    -0.107 N 
ENDBRANCH  17  18
ENDBRANCH  16  17
END_RES ASN A 133
