REMARK VINA RESULT:    -5.292      5.499      8.590
REMARK INTER + INTRA:          -9.317
REMARK INTER:                  -5.685
REMARK INTRA:                  -3.632
REMARK UNBOUND:                -2.941
REMARK SMILES Cc1cn(-c2ccc(S(=O)(=O)c3ccc(N)cc3)cc2)nn1
REMARK SMILES IDX 9 1 10 2 11 3 8 4 5 5 6 6 20 7 7 8 19 9 4 10 1 11 2 12 3 13
REMARK SMILES IDX 22 14 21 15 12 16 13 17 18 18 14 19 17 20 15 21 16 22
REMARK H PARENT 16 23 16 24
REMARK Flexibility Score: inf
ROOT
ATOM      1  S   UNL     1      35.385  40.711   5.023  1.00  0.00     0.206 S 
ATOM      2  O   UNL     1      36.523  40.821   6.022  1.00  0.00    -0.219 OA
ATOM      3  O   UNL     1      35.267  42.057   4.363  1.00  0.00    -0.219 OA
ENDROOT
BRANCH   1   4
ATOM      4  C   UNL     1      33.917  40.239   5.830  1.00  0.00     0.072 A 
ATOM      5  C   UNL     1      31.500  39.484   7.037  1.00  0.00     0.066 A 
ATOM      6  C   UNL     1      31.582  39.765   5.668  1.00  0.00     0.030 A 
ATOM      7  C   UNL     1      32.637  39.588   7.777  1.00  0.00     0.030 A 
ATOM      8  C   UNL     1      32.772  40.136   5.077  1.00  0.00     0.023 A 
ATOM      9  C   UNL     1      33.843  39.964   7.180  1.00  0.00     0.023 A 
BRANCH   5  10
ATOM     10  N   UNL     1      30.235  39.107   7.578  1.00  0.00    -0.220 N 
ATOM     11  C   UNL     1      27.520  38.679   9.970  1.00  0.00     0.070 C 
ATOM     12  C   UNL     1      28.484  38.749   8.859  1.00  0.00     0.080 A 
ATOM     13  C   UNL     1      29.754  39.280   8.803  1.00  0.00     0.140 A 
ATOM     14  N   UNL     1      28.234  38.257   7.621  1.00  0.00    -0.135 NA
ATOM     15  N   UNL     1      29.293  38.488   6.892  1.00  0.00    -0.062 NA
ENDBRANCH   5  10
ENDBRANCH   1   4
BRANCH   1  16
ATOM     16  C   UNL     1      35.830  39.554   3.778  1.00  0.00     0.072 A 
ATOM     17  C   UNL     1      35.377  39.661   2.480  1.00  0.00     0.023 A 
ATOM     18  C   UNL     1      36.662  38.486   4.075  1.00  0.00     0.023 A 
ATOM     19  C   UNL     1      35.733  38.741   1.498  1.00  0.00     0.027 A 
ATOM     20  C   UNL     1      37.016  37.568   3.091  1.00  0.00     0.027 A 
ATOM     21  C   UNL     1      36.556  37.686   1.796  1.00  0.00     0.031 A 
BRANCH  21  22
ATOM     22  N   UNL     1      36.907  36.757   0.774  1.00  0.00    -0.399 N 
ATOM     23  H   UNL     1      36.487  35.818   0.738  1.00  0.00     0.156 HD
ATOM     24  H   UNL     1      37.603  37.030   0.048  1.00  0.00     0.156 HD
ENDBRANCH  21  22
ENDBRANCH   1  16
TORSDOF 4
BEGIN_RES LYS A 135
REMARK  4 active torsions:
REMARK  status: ('A' for Active; 'I' for Inactive)
REMARK    1  A    between atoms: CA   and  CB  
REMARK    2  A    between atoms: CB   and  CG  
REMARK    3  A    between atoms: CG   and  CD  
REMARK    4  A    between atoms: CD   and  CE  
ROOT
ATOM      1  CA  LYS A 135      33.193  34.663   9.290  1.00 25.02     0.186 C 
ENDROOT
BRANCH   1   2
ATOM      2  CB  LYS A 135      32.060  35.360  10.034  1.00 26.63     0.034 C 
BRANCH   2   3
ATOM      3  CG  LYS A 135      30.847  35.619   9.178  1.00 29.45     0.005 C 
BRANCH   3   4
ATOM      4  CD  LYS A 135      30.230  34.310   8.711  1.00 32.00     0.041 C 
BRANCH   4   5
ATOM      5  CE  LYS A 135      28.727  34.452   8.562  1.00 34.25     0.338 C 
ATOM      6  NZ  LYS A 135      28.008  33.661   9.599  1.00 35.99     0.618 N 
ENDBRANCH   4   5
ENDBRANCH   3   4
ENDBRANCH   2   3
ENDBRANCH   1   2
END_RES LYS A 135
BEGIN_RES TYR A 136
REMARK  2 active torsions:
REMARK  status: ('A' for Active; 'I' for Inactive)
REMARK    5  A    between atoms: CA   and  CB  
REMARK    6  A    between atoms: CB   and  CG  
ROOT
ATOM      7  CA  TYR A 136      36.583  36.399   8.994  1.00 26.14     0.191 C 
ENDROOT
BRANCH   7   8
ATOM      8  CB  TYR A 136      37.367  36.835  10.240  1.00 28.16     0.060 C 
BRANCH   8   9
ATOM      9  CG  TYR A 136      37.059  38.254  10.652  1.00 31.88    -0.020 A 
ATOM     10  CD2 TYR A 136      37.287  38.693  11.958  1.00 32.67    -0.002 A 
ATOM     11  CE2 TYR A 136      36.996  40.012  12.331  1.00 33.89     0.027 A 
ATOM     12  CZ  TYR A 136      36.473  40.900  11.389  1.00 34.34     0.131 A 
ATOM     13  OH  TYR A 136      36.184  42.213  11.734  1.00 35.14    -0.190 OA
ATOM     14  CE1 TYR A 136      36.239  40.481  10.087  1.00 35.01     0.027 A 
ATOM     15  CD1 TYR A 136      36.527  39.162   9.729  1.00 33.57    -0.002 A 
ENDBRANCH   8   9
ENDBRANCH   7   8
END_RES TYR A 136
BEGIN_RES ASN A 133
REMARK  2 active torsions:
REMARK  status: ('A' for Active; 'I' for Inactive)
REMARK    7  A    between atoms: CA   and  CB  
REMARK    8  A    between atoms: CB   and  CG  
ROOT
ATOM     16  CA  ASN A 133      31.225  30.257  11.749  1.00 18.15     0.196 C 
ENDROOT
BRANCH  16  17
ATOM     17  CB  ASN A 133      30.092  31.240  11.460  1.00 18.27     0.126 C 
BRANCH  17  18
ATOM     18  CG  ASN A 133      28.749  30.585  11.371  1.00 18.94     0.276 C 
ATOM     19  OD1 ASN A 133      28.558  29.615  10.635  1.00 18.09    -0.269 OA
ATOM     20  ND2 ASN A 133      27.790  31.116  12.130  1.00 18.93    -0.107 N 
ENDBRANCH  17  18
ENDBRANCH  16  17
END_RES ASN A 133
