REMARK VINA RESULT:    -4.147      2.259      3.097
REMARK INTER + INTRA:          -7.692
REMARK INTER:                  -4.515
REMARK INTRA:                  -3.177
REMARK UNBOUND:                -3.060
REMARK SMILES Cc1cn(Cc2ccccc2)nn1
REMARK SMILES IDX 5 1 4 2 1 3 2 4 3 5 13 6 12 7 6 8 7 9 11 10 8 11 10 12 9 13
REMARK H PARENT
REMARK Flexibility Score: inf
ROOT
ATOM      1  C   UNL     1      33.576  35.999  14.384  1.00  0.00     0.181 C 
ENDROOT
BRANCH   1   2
ATOM      2  N   UNL     1      34.833  35.341  14.067  1.00  0.00    -0.248 N 
ATOM      3  C   UNL     1      38.285  34.340  14.481  1.00  0.00     0.070 C 
ATOM      4  C   UNL     1      36.872  34.606  14.082  1.00  0.00     0.080 A 
ATOM      5  C   UNL     1      35.957  35.374  14.776  1.00  0.00     0.134 A 
ATOM      6  N   UNL     1      36.257  34.140  12.981  1.00  0.00    -0.136 NA
ATOM      7  N   UNL     1      35.022  34.601  12.996  1.00  0.00    -0.067 NA
ENDBRANCH   1   2
BRANCH   1   8
ATOM      8  C   UNL     1      32.840  35.139  15.359  1.00  0.00    -0.026 A 
ATOM      9  C   UNL     1      32.709  35.521  16.681  1.00  0.00     0.005 A 
ATOM     10  C   UNL     1      32.264  33.938  14.992  1.00  0.00     0.005 A 
ATOM     11  C   UNL     1      32.029  34.728  17.581  1.00  0.00     0.000 A 
ATOM     12  C   UNL     1      31.583  33.140  15.890  1.00  0.00     0.000 A 
ATOM     13  C   UNL     1      31.454  33.524  17.207  1.00  0.00     0.000 A 
ENDBRANCH   1   8
TORSDOF 2
BEGIN_RES LYS A 135
REMARK  4 active torsions:
REMARK  status: ('A' for Active; 'I' for Inactive)
REMARK    1  A    between atoms: CA   and  CB  
REMARK    2  A    between atoms: CB   and  CG  
REMARK    3  A    between atoms: CG   and  CD  
REMARK    4  A    between atoms: CD   and  CE  
ROOT
ATOM      1  CA  LYS A 135      33.193  34.663   9.290  1.00 25.02     0.186 C 
ENDROOT
BRANCH   1   2
ATOM      2  CB  LYS A 135      32.060  35.360  10.034  1.00 26.63     0.034 C 
BRANCH   2   3
ATOM      3  CG  LYS A 135      30.803  35.508   9.216  1.00 29.45     0.005 C 
BRANCH   3   4
ATOM      4  CD  LYS A 135      30.133  34.159   9.011  1.00 32.00     0.041 C 
BRANCH   4   5
ATOM      5  CE  LYS A 135      28.673  34.339   8.642  1.00 34.25     0.338 C 
ATOM      6  NZ  LYS A 135      27.783  33.680   9.637  1.00 35.99     0.618 N 
ENDBRANCH   4   5
ENDBRANCH   3   4
ENDBRANCH   2   3
ENDBRANCH   1   2
END_RES LYS A 135
BEGIN_RES TYR A 136
REMARK  2 active torsions:
REMARK  status: ('A' for Active; 'I' for Inactive)
REMARK    5  A    between atoms: CA   and  CB  
REMARK    6  A    between atoms: CB   and  CG  
ROOT
ATOM      7  CA  TYR A 136      36.583  36.399   8.994  1.00 26.14     0.191 C 
ENDROOT
BRANCH   7   8
ATOM      8  CB  TYR A 136      37.367  36.835  10.240  1.00 28.16     0.060 C 
BRANCH   8   9
ATOM      9  CG  TYR A 136      36.733  38.011  10.942  1.00 31.88    -0.020 A 
ATOM     10  CD2 TYR A 136      36.602  38.037  12.332  1.00 32.67    -0.002 A 
ATOM     11  CE2 TYR A 136      36.010  39.134  12.975  1.00 33.89     0.027 A 
ATOM     12  CZ  TYR A 136      35.545  40.213  12.219  1.00 34.34     0.131 A 
ATOM     13  OH  TYR A 136      34.963  41.312  12.835  1.00 35.14    -0.190 OA
ATOM     14  CE1 TYR A 136      35.667  40.202  10.837  1.00 35.01     0.027 A 
ATOM     15  CD1 TYR A 136      36.252  39.102  10.208  1.00 33.57    -0.002 A 
ENDBRANCH   8   9
ENDBRANCH   7   8
END_RES TYR A 136
BEGIN_RES ASN A 133
REMARK  2 active torsions:
REMARK  status: ('A' for Active; 'I' for Inactive)
REMARK    7  A    between atoms: CA   and  CB  
REMARK    8  A    between atoms: CB   and  CG  
ROOT
ATOM     16  CA  ASN A 133      31.225  30.257  11.749  1.00 18.15     0.196 C 
ENDROOT
BRANCH  16  17
ATOM     17  CB  ASN A 133      30.092  31.240  11.460  1.00 18.27     0.126 C 
BRANCH  17  18
ATOM     18  CG  ASN A 133      28.750  30.583  11.358  1.00 18.94     0.276 C 
ATOM     19  OD1 ASN A 133      28.568  29.616  10.616  1.00 18.09    -0.269 OA
ATOM     20  ND2 ASN A 133      27.785  31.109  12.111  1.00 18.93    -0.107 N 
ENDBRANCH  17  18
ENDBRANCH  16  17
END_RES ASN A 133
