REMARK VINA RESULT:    -3.916      6.826      9.588
REMARK INTER + INTRA:          -7.684
REMARK INTER:                  -4.384
REMARK INTRA:                  -3.300
REMARK UNBOUND:                -3.310
REMARK SMILES Cc1cn(-c2cc(Cl)ccc2C(=O)N(C)C)nn1
REMARK SMILES IDX 5 1 6 2 7 3 8 4 9 5 10 6 11 7 4 8 1 9 2 10 3 11 18 12 17 13
REMARK SMILES IDX 12 14 13 15 14 16 15 17 16 18
REMARK H PARENT
REMARK Flexibility Score: inf
ROOT
ATOM      1  C   UNL     1      36.727  38.910   3.166  1.00  0.00     0.081 A 
ATOM      2  C   UNL     1      35.427  39.435   3.138  1.00  0.00     0.049 A 
ATOM      3  C   UNL     1      34.628  39.389   4.259  1.00  0.00     0.043 A 
ATOM      4  Cl  UNL     1      32.997  40.051   4.206  1.00  0.00    -0.084 Cl
ATOM      5  C   UNL     1      35.086  38.826   5.431  1.00  0.00     0.021 A 
ATOM      6  C   UNL     1      36.362  38.313   5.454  1.00  0.00     0.017 A 
ATOM      7  C   UNL     1      37.155  38.360   4.343  1.00  0.00     0.065 A 
ENDROOT
BRANCH   1   8
ATOM      8  N   UNL     1      37.542  38.965   2.003  1.00  0.00    -0.220 N 
ATOM      9  C   UNL     1      39.914  40.463  -0.359  1.00  0.00     0.070 C 
ATOM     10  C   UNL     1      38.953  39.627   0.422  1.00  0.00     0.080 A 
ATOM     11  C   UNL     1      38.324  39.978   1.622  1.00  0.00     0.140 A 
ATOM     12  N   UNL     1      38.505  38.396   0.142  1.00  0.00    -0.135 NA
ATOM     13  N   UNL     1      37.673  38.037   1.098  1.00  0.00    -0.062 NA
ENDBRANCH   1   8
BRANCH   7  14
ATOM     14  C   UNL     1      38.510  37.804   4.401  1.00  0.00     0.255 C 
ATOM     15  O   UNL     1      38.745  36.619   4.065  1.00  0.00    -0.269 OA
ATOM     16  N   UNL     1      39.559  38.653   4.854  1.00  0.00    -0.345 N 
ATOM     17  C   UNL     1      40.925  38.116   4.921  1.00  0.00     0.146 C 
ATOM     18  C   UNL     1      39.330  40.010   5.247  1.00  0.00     0.146 C 
ENDBRANCH   7  14
TORSDOF 2
BEGIN_RES LYS A 135
REMARK  4 active torsions:
REMARK  status: ('A' for Active; 'I' for Inactive)
REMARK    1  A    between atoms: CA   and  CB  
REMARK    2  A    between atoms: CB   and  CG  
REMARK    3  A    between atoms: CG   and  CD  
REMARK    4  A    between atoms: CD   and  CE  
ROOT
ATOM      1  CA  LYS A 135      33.193  34.663   9.290  1.00 25.02     0.186 C 
ENDROOT
BRANCH   1   2
ATOM      2  CB  LYS A 135      32.060  35.360  10.034  1.00 26.63     0.034 C 
BRANCH   2   3
ATOM      3  CG  LYS A 135      30.695  34.817   9.698  1.00 29.45     0.005 C 
BRANCH   3   4
ATOM      4  CD  LYS A 135      30.600  34.481   8.218  1.00 32.00     0.041 C 
BRANCH   4   5
ATOM      5  CE  LYS A 135      29.368  35.120   7.605  1.00 34.25     0.338 C 
ATOM      6  NZ  LYS A 135      28.127  34.641   8.274  1.00 35.99     0.618 N 
ENDBRANCH   4   5
ENDBRANCH   3   4
ENDBRANCH   2   3
ENDBRANCH   1   2
END_RES LYS A 135
BEGIN_RES TYR A 136
REMARK  2 active torsions:
REMARK  status: ('A' for Active; 'I' for Inactive)
REMARK    5  A    between atoms: CA   and  CB  
REMARK    6  A    between atoms: CB   and  CG  
ROOT
ATOM      7  CA  TYR A 136      36.583  36.399   8.994  1.00 26.14     0.191 C 
ENDROOT
BRANCH   7   8
ATOM      8  CB  TYR A 136      37.367  36.835  10.240  1.00 28.16     0.060 C 
BRANCH   8   9
ATOM      9  CG  TYR A 136      37.354  38.331  10.440  1.00 31.88    -0.020 A 
ATOM     10  CD2 TYR A 136      37.942  38.915  11.564  1.00 32.67    -0.002 A 
ATOM     11  CE2 TYR A 136      37.923  40.305  11.741  1.00 33.89     0.027 A 
ATOM     12  CZ  TYR A 136      37.309  41.118  10.785  1.00 34.34     0.131 A 
ATOM     13  OH  TYR A 136      37.284  42.498  10.936  1.00 35.14    -0.190 OA
ATOM     14  CE1 TYR A 136      36.719  40.554   9.663  1.00 35.01     0.027 A 
ATOM     15  CD1 TYR A 136      36.739  39.168   9.500  1.00 33.57    -0.002 A 
ENDBRANCH   8   9
ENDBRANCH   7   8
END_RES TYR A 136
BEGIN_RES ASN A 133
REMARK  2 active torsions:
REMARK  status: ('A' for Active; 'I' for Inactive)
REMARK    7  A    between atoms: CA   and  CB  
REMARK    8  A    between atoms: CB   and  CG  
ROOT
ATOM     16  CA  ASN A 133      31.225  30.257  11.749  1.00 18.15     0.196 C 
ENDROOT
BRANCH  16  17
ATOM     17  CB  ASN A 133      30.092  31.240  11.460  1.00 18.27     0.126 C 
BRANCH  17  18
ATOM     18  CG  ASN A 133      28.751  30.582  11.353  1.00 18.94     0.276 C 
ATOM     19  OD1 ASN A 133      28.575  29.606  10.621  1.00 18.09    -0.269 OA
ATOM     20  ND2 ASN A 133      27.779  31.118  12.090  1.00 18.93    -0.107 N 
ENDBRANCH  17  18
ENDBRANCH  16  17
END_RES ASN A 133
