REMARK VINA RESULT:    -4.010      3.786      7.204
REMARK INTER + INTRA:          -7.816
REMARK INTER:                  -6.268
REMARK INTRA:                  -1.548
REMARK UNBOUND:                -3.103
REMARK SMILES Cc1cn(Cc2ccc(C#N)cc2)nn1
REMARK SMILES IDX 6 1 7 2 8 3 9 4 12 5 13 6 5 7 4 8 1 9 2 10 3 11 15 12 14 13
REMARK SMILES IDX 10 14 11 15
REMARK H PARENT
REMARK Flexibility Score: inf
ROOT
ATOM      1  C   UNL     1      27.551  34.886   8.363  1.00  0.00    -0.026 A 
ATOM      2  C   UNL     1      26.597  35.878   8.281  1.00  0.00     0.007 A 
ATOM      3  C   UNL     1      26.660  36.850   7.303  1.00  0.00     0.020 A 
ATOM      4  C   UNL     1      27.677  36.878   6.362  1.00  0.00     0.052 A 
ATOM      5  C   UNL     1      28.626  35.880   6.454  1.00  0.00     0.020 A 
ATOM      6  C   UNL     1      28.567  34.907   7.432  1.00  0.00     0.007 A 
ENDROOT
BRANCH   1   7
ATOM      7  C   UNL     1      27.487  33.830   9.423  1.00  0.00     0.181 C 
BRANCH   7   8
ATOM      8  N   UNL     1      28.403  34.150  10.520  1.00  0.00    -0.248 N 
ATOM      9  C   UNL     1      29.527  35.753  13.638  1.00  0.00     0.070 C 
ATOM     10  C   UNL     1      29.324  34.980  12.365  1.00  0.00     0.080 A 
ATOM     11  C   UNL     1      28.193  34.965  11.571  1.00  0.00     0.134 A 
ATOM     12  N   UNL     1      30.197  34.157  11.757  1.00  0.00    -0.136 NA
ATOM     13  N   UNL     1      29.620  33.679  10.661  1.00  0.00    -0.067 NA
ENDBRANCH   7   8
ENDBRANCH   1   7
BRANCH   4  14
ATOM     14  C   UNL     1      27.731  37.895   5.350  1.00  0.00     0.099 C 
ATOM     15  N   UNL     1      27.760  38.722   4.541  1.00  0.00    -0.192 NA
ENDBRANCH   4  14
TORSDOF 3
BEGIN_RES LYS A 135
REMARK  4 active torsions:
REMARK  status: ('A' for Active; 'I' for Inactive)
REMARK    1  A    between atoms: CA   and  CB  
REMARK    2  A    between atoms: CB   and  CG  
REMARK    3  A    between atoms: CG   and  CD  
REMARK    4  A    between atoms: CD   and  CE  
ROOT
ATOM      1  CA  LYS A 135      33.193  34.663   9.290  1.00 25.02     0.186 C 
ENDROOT
BRANCH   1   2
ATOM      2  CB  LYS A 135      32.060  35.360  10.034  1.00 26.63     0.034 C 
BRANCH   2   3
ATOM      3  CG  LYS A 135      31.224  36.255   9.156  1.00 29.45     0.005 C 
BRANCH   3   4
ATOM      4  CD  LYS A 135      30.606  37.381   9.972  1.00 32.00     0.041 C 
BRANCH   4   5
ATOM      5  CE  LYS A 135      29.726  38.252   9.096  1.00 34.25     0.338 C 
ATOM      6  NZ  LYS A 135      30.459  38.707   7.882  1.00 35.99     0.618 N 
ENDBRANCH   4   5
ENDBRANCH   3   4
ENDBRANCH   2   3
ENDBRANCH   1   2
END_RES LYS A 135
BEGIN_RES TYR A 136
REMARK  2 active torsions:
REMARK  status: ('A' for Active; 'I' for Inactive)
REMARK    5  A    between atoms: CA   and  CB  
REMARK    6  A    between atoms: CB   and  CG  
ROOT
ATOM      7  CA  TYR A 136      36.583  36.399   8.994  1.00 26.14     0.191 C 
ENDROOT
BRANCH   7   8
ATOM      8  CB  TYR A 136      37.367  36.835  10.240  1.00 28.16     0.060 C 
BRANCH   8   9
ATOM      9  CG  TYR A 136      37.135  38.283  10.594  1.00 31.88    -0.020 A 
ATOM     10  CD2 TYR A 136      36.545  38.645  11.807  1.00 32.67    -0.002 A 
ATOM     11  CE2 TYR A 136      36.333  39.994  12.126  1.00 33.89     0.027 A 
ATOM     12  CZ  TYR A 136      36.713  40.989  11.222  1.00 34.34     0.131 A 
ATOM     13  OH  TYR A 136      36.518  42.330  11.520  1.00 35.14    -0.190 OA
ATOM     14  CE1 TYR A 136      37.299  40.647  10.012  1.00 35.01     0.027 A 
ATOM     15  CD1 TYR A 136      37.500  39.300   9.703  1.00 33.57    -0.002 A 
ENDBRANCH   8   9
ENDBRANCH   7   8
END_RES TYR A 136
BEGIN_RES ASN A 133
REMARK  2 active torsions:
REMARK  status: ('A' for Active; 'I' for Inactive)
REMARK    7  A    between atoms: CA   and  CB  
REMARK    8  A    between atoms: CB   and  CG  
ROOT
ATOM     16  CA  ASN A 133      31.225  30.257  11.749  1.00 18.15     0.196 C 
ENDROOT
BRANCH  16  17
ATOM     17  CB  ASN A 133      30.092  31.240  11.460  1.00 18.27     0.126 C 
BRANCH  17  18
ATOM     18  CG  ASN A 133      28.748  30.586  11.377  1.00 18.94     0.276 C 
ATOM     19  OD1 ASN A 133      28.553  29.619  10.638  1.00 18.09    -0.269 OA
ATOM     20  ND2 ASN A 133      27.794  31.114  12.142  1.00 18.93    -0.107 N 
ENDBRANCH  17  18
ENDBRANCH  16  17
END_RES ASN A 133
