REMARK VINA RESULT:    -3.514     10.153     17.574
REMARK INTER + INTRA:          -7.235
REMARK INTER:                  -4.107
REMARK INTRA:                  -3.128
REMARK UNBOUND:                -3.310
REMARK SMILES Cc1cn(-c2cc(Cl)ccc2C(=O)N(C)C)nn1
REMARK SMILES IDX 5 1 6 2 7 3 8 4 9 5 10 6 11 7 4 8 1 9 2 10 3 11 18 12 17 13
REMARK SMILES IDX 12 14 13 15 14 16 15 17 16 18
REMARK H PARENT
REMARK Flexibility Score: inf
ROOT
ATOM      1  C   UNL     1      22.684  35.199  -1.439  1.00  0.00     0.081 A 
ATOM      2  C   UNL     1      23.018  34.239  -0.473  1.00  0.00     0.049 A 
ATOM      3  C   UNL     1      22.221  33.131  -0.283  1.00  0.00     0.043 A 
ATOM      4  Cl  UNL     1      22.653  31.935   0.935  1.00  0.00    -0.084 Cl
ATOM      5  C   UNL     1      21.081  32.942  -1.034  1.00  0.00     0.021 A 
ATOM      6  C   UNL     1      20.759  33.887  -1.981  1.00  0.00     0.017 A 
ATOM      7  C   UNL     1      21.549  34.985  -2.170  1.00  0.00     0.065 A 
ENDROOT
BRANCH   1   8
ATOM      8  N   UNL     1      23.515  36.338  -1.626  1.00  0.00    -0.220 N 
ATOM      9  C   UNL     1      24.664  39.776  -1.073  1.00  0.00     0.070 C 
ATOM     10  C   UNL     1      24.416  38.362  -1.485  1.00  0.00     0.080 A 
ATOM     11  C   UNL     1      23.401  37.520  -1.017  1.00  0.00     0.140 A 
ATOM     12  N   UNL     1      25.100  37.622  -2.370  1.00  0.00    -0.135 NA
ATOM     13  N   UNL     1      24.539  36.432  -2.427  1.00  0.00    -0.062 NA
ENDBRANCH   1   8
BRANCH   7  14
ATOM     14  C   UNL     1      21.177  35.974  -3.187  1.00  0.00     0.255 C 
ATOM     15  O   UNL     1      20.458  36.961  -2.905  1.00  0.00    -0.269 OA
ATOM     16  N   UNL     1      21.657  35.778  -4.513  1.00  0.00    -0.345 N 
ATOM     17  C   UNL     1      21.296  36.756  -5.547  1.00  0.00     0.146 C 
ATOM     18  C   UNL     1      22.479  34.663  -4.872  1.00  0.00     0.146 C 
ENDBRANCH   7  14
TORSDOF 2
BEGIN_RES LYS A 135
REMARK  4 active torsions:
REMARK  status: ('A' for Active; 'I' for Inactive)
REMARK    1  A    between atoms: CA   and  CB  
REMARK    2  A    between atoms: CB   and  CG  
REMARK    3  A    between atoms: CG   and  CD  
REMARK    4  A    between atoms: CD   and  CE  
ROOT
ATOM      1  CA  LYS A 135      33.193  34.663   9.290  1.00 25.02     0.186 C 
ENDROOT
BRANCH   1   2
ATOM      2  CB  LYS A 135      32.060  35.360  10.034  1.00 26.63     0.034 C 
BRANCH   2   3
ATOM      3  CG  LYS A 135      30.701  34.778   9.744  1.00 29.45     0.005 C 
BRANCH   3   4
ATOM      4  CD  LYS A 135      30.520  34.556   8.250  1.00 32.00     0.041 C 
BRANCH   4   5
ATOM      5  CE  LYS A 135      29.114  34.933   7.822  1.00 34.25     0.338 C 
ATOM      6  NZ  LYS A 135      28.482  35.854   8.807  1.00 35.99     0.618 N 
ENDBRANCH   4   5
ENDBRANCH   3   4
ENDBRANCH   2   3
ENDBRANCH   1   2
END_RES LYS A 135
BEGIN_RES TYR A 136
REMARK  2 active torsions:
REMARK  status: ('A' for Active; 'I' for Inactive)
REMARK    5  A    between atoms: CA   and  CB  
REMARK    6  A    between atoms: CB   and  CG  
ROOT
ATOM      7  CA  TYR A 136      36.583  36.399   8.994  1.00 26.14     0.191 C 
ENDROOT
BRANCH   7   8
ATOM      8  CB  TYR A 136      37.367  36.835  10.240  1.00 28.16     0.060 C 
BRANCH   8   9
ATOM      9  CG  TYR A 136      37.194  38.301  10.551  1.00 31.88    -0.020 A 
ATOM     10  CD2 TYR A 136      36.584  39.166   9.640  1.00 32.67    -0.002 A 
ATOM     11  CE2 TYR A 136      36.429  40.527   9.938  1.00 33.89     0.027 A 
ATOM     12  CZ  TYR A 136      36.889  41.027  11.158  1.00 34.34     0.131 A 
ATOM     13  OH  TYR A 136      36.740  42.370  11.478  1.00 35.14    -0.190 OA
ATOM     14  CE1 TYR A 136      37.499  40.182  12.075  1.00 35.01     0.027 A 
ATOM     15  CD1 TYR A 136      37.653  38.830  11.764  1.00 33.57    -0.002 A 
ENDBRANCH   8   9
ENDBRANCH   7   8
END_RES TYR A 136
BEGIN_RES ASN A 133
REMARK  2 active torsions:
REMARK  status: ('A' for Active; 'I' for Inactive)
REMARK    7  A    between atoms: CA   and  CB  
REMARK    8  A    between atoms: CB   and  CG  
ROOT
ATOM     16  CA  ASN A 133      31.225  30.257  11.749  1.00 18.15     0.196 C 
ENDROOT
BRANCH  16  17
ATOM     17  CB  ASN A 133      30.092  31.240  11.460  1.00 18.27     0.126 C 
BRANCH  17  18
ATOM     18  CG  ASN A 133      28.751  30.582  11.351  1.00 18.94     0.276 C 
ATOM     19  OD1 ASN A 133      28.576  29.608  10.616  1.00 18.09    -0.269 OA
ATOM     20  ND2 ASN A 133      27.779  31.116  12.089  1.00 18.93    -0.107 N 
ENDBRANCH  17  18
ENDBRANCH  16  17
END_RES ASN A 133
