REMARK VINA RESULT:    -3.955      5.280      7.602
REMARK INTER + INTRA:          -7.469
REMARK INTER:                  -4.152
REMARK INTRA:                  -3.317
REMARK UNBOUND:                -3.283
REMARK SMILES Cc1cn(C23CC4CC(CC(C4)C2)C3)nn1
REMARK SMILES IDX 5 1 14 2 9 3 8 4 7 5 12 6 11 7 10 8 13 9 6 10 4 11 1 12 2 13
REMARK SMILES IDX 3 14 16 15 15 16
REMARK H PARENT
REMARK Flexibility Score: inf
ROOT
ATOM      1  C   UNL     1      36.161  39.556   5.263  1.00  0.00     0.065 C 
ATOM      2  C   UNL     1      36.158  40.978   4.714  1.00  0.00     0.034 C 
ATOM      3  C   UNL     1      35.346  41.856   5.659  1.00  0.00    -0.008 C 
ATOM      4  C   UNL     1      36.021  41.797   7.000  1.00  0.00     0.007 C 
ATOM      5  C   UNL     1      35.935  40.395   7.538  1.00  0.00    -0.008 C 
ATOM      6  C   UNL     1      34.534  39.879   7.598  1.00  0.00     0.007 C 
ATOM      7  C   UNL     1      33.934  39.883   6.213  1.00  0.00    -0.008 C 
ATOM      8  C   UNL     1      33.939  41.335   5.732  1.00  0.00     0.007 C 
ATOM      9  C   UNL     1      34.725  39.085   5.233  1.00  0.00     0.034 C 
ATOM     10  C   UNL     1      36.761  39.501   6.644  1.00  0.00     0.034 C 
ENDROOT
BRANCH   1  11
ATOM     11  N   UNL     1      36.903  38.736   4.315  1.00  0.00    -0.246 N 
ATOM     12  C   UNL     1      38.039  38.053   0.942  1.00  0.00     0.070 C 
ATOM     13  C   UNL     1      37.729  38.085   2.384  1.00  0.00     0.080 A 
ATOM     14  C   UNL     1      36.963  39.037   3.005  1.00  0.00     0.134 A 
ATOM     15  N   UNL     1      38.109  37.229   3.367  1.00  0.00    -0.136 NA
ATOM     16  N   UNL     1      37.596  37.647   4.514  1.00  0.00    -0.067 NA
ENDBRANCH   1  11
TORSDOF 1
BEGIN_RES LYS A 135
REMARK  4 active torsions:
REMARK  status: ('A' for Active; 'I' for Inactive)
REMARK    1  A    between atoms: CA   and  CB  
REMARK    2  A    between atoms: CB   and  CG  
REMARK    3  A    between atoms: CG   and  CD  
REMARK    4  A    between atoms: CD   and  CE  
ROOT
ATOM      1  CA  LYS A 135      33.193  34.663   9.290  1.00 25.02     0.186 C 
ENDROOT
BRANCH   1   2
ATOM      2  CB  LYS A 135      32.060  35.360  10.034  1.00 26.63     0.034 C 
BRANCH   2   3
ATOM      3  CG  LYS A 135      30.845  35.614   9.180  1.00 29.45     0.005 C 
BRANCH   3   4
ATOM      4  CD  LYS A 135      30.249  34.303   8.691  1.00 32.00     0.041 C 
BRANCH   4   5
ATOM      5  CE  LYS A 135      28.749  34.435   8.507  1.00 34.25     0.338 C 
ATOM      6  NZ  LYS A 135      28.011  33.718   9.583  1.00 35.99     0.618 N 
ENDBRANCH   4   5
ENDBRANCH   3   4
ENDBRANCH   2   3
ENDBRANCH   1   2
END_RES LYS A 135
BEGIN_RES TYR A 136
REMARK  2 active torsions:
REMARK  status: ('A' for Active; 'I' for Inactive)
REMARK    5  A    between atoms: CA   and  CB  
REMARK    6  A    between atoms: CB   and  CG  
ROOT
ATOM      7  CA  TYR A 136      36.583  36.399   8.994  1.00 26.14     0.191 C 
ENDROOT
BRANCH   7   8
ATOM      8  CB  TYR A 136      37.367  36.835  10.240  1.00 28.16     0.060 C 
BRANCH   8   9
ATOM      9  CG  TYR A 136      37.278  38.320  10.492  1.00 31.88    -0.020 A 
ATOM     10  CD2 TYR A 136      36.119  38.896  11.018  1.00 32.67    -0.002 A 
ATOM     11  CE2 TYR A 136      36.046  40.277  11.247  1.00 33.89     0.027 A 
ATOM     12  CZ  TYR A 136      37.141  41.089  10.945  1.00 34.34     0.131 A 
ATOM     13  OH  TYR A 136      37.094  42.458  11.169  1.00 35.14    -0.190 OA
ATOM     14  CE1 TYR A 136      38.300  40.534  10.420  1.00 35.01     0.027 A 
ATOM     15  CD1 TYR A 136      38.359  39.158  10.191  1.00 33.57    -0.002 A 
ENDBRANCH   8   9
ENDBRANCH   7   8
END_RES TYR A 136
BEGIN_RES ASN A 133
REMARK  2 active torsions:
REMARK  status: ('A' for Active; 'I' for Inactive)
REMARK    7  A    between atoms: CA   and  CB  
REMARK    8  A    between atoms: CB   and  CG  
ROOT
ATOM     16  CA  ASN A 133      31.225  30.257  11.749  1.00 18.15     0.196 C 
ENDROOT
BRANCH  16  17
ATOM     17  CB  ASN A 133      30.092  31.240  11.460  1.00 18.27     0.126 C 
BRANCH  17  18
ATOM     18  CG  ASN A 133      28.750  30.584  11.363  1.00 18.94     0.276 C 
ATOM     19  OD1 ASN A 133      28.566  29.611  10.629  1.00 18.09    -0.269 OA
ATOM     20  ND2 ASN A 133      27.785  31.117  12.112  1.00 18.93    -0.107 N 
ENDBRANCH  17  18
ENDBRANCH  16  17
END_RES ASN A 133
