REMARK VINA RESULT:    -4.767      2.323      3.604
REMARK INTER + INTRA:          -8.097
REMARK INTER:                  -5.287
REMARK INTRA:                  -2.810
REMARK UNBOUND:                -3.051
REMARK SMILES Cc1cn(-c2c3ccccc3nc3ccccc23)nn1
REMARK SMILES IDX 5 1 6 2 7 3 8 4 9 5 10 6 11 7 12 8 13 9 14 10 15 11 16 12
REMARK SMILES IDX 17 13 18 14 4 15 1 16 2 17 3 18 20 19 19 20
REMARK H PARENT
REMARK Flexibility Score: inf
ROOT
ATOM      1  C   UNL     1      38.924  34.988  13.976  1.00  0.00     0.085 A 
ATOM      2  C   UNL     1      39.263  34.622  15.267  1.00  0.00     0.027 A 
ATOM      3  C   UNL     1      38.307  34.131  16.131  1.00  0.00     0.012 A 
ATOM      4  C   UNL     1      38.673  33.774  17.412  1.00  0.00     0.001 A 
ATOM      5  C   UNL     1      39.993  33.924  17.775  1.00  0.00     0.002 A 
ATOM      6  C   UNL     1      40.938  34.410  16.912  1.00  0.00     0.029 A 
ATOM      7  C   UNL     1      40.589  34.777  15.612  1.00  0.00     0.073 A 
ATOM      8  N   UNL     1      41.531  35.253  14.784  1.00  0.00    -0.248 NA
ATOM      9  C   UNL     1      41.202  35.617  13.508  1.00  0.00     0.073 A 
ATOM     10  C   UNL     1      42.166  36.106  12.648  1.00  0.00     0.029 A 
ATOM     11  C   UNL     1      41.772  36.456  11.375  1.00  0.00     0.002 A 
ATOM     12  C   UNL     1      40.460  36.326  10.960  1.00  0.00     0.001 A 
ATOM     13  C   UNL     1      39.528  35.842  11.820  1.00  0.00     0.012 A 
ATOM     14  C   UNL     1      39.897  35.486  13.097  1.00  0.00     0.027 A 
ENDROOT
BRANCH   1  15
ATOM     15  N   UNL     1      37.585  34.867  13.519  1.00  0.00    -0.219 N 
ATOM     16  C   UNL     1      34.176  36.015  12.797  1.00  0.00     0.070 C 
ATOM     17  C   UNL     1      35.487  35.297  12.992  1.00  0.00     0.080 A 
ATOM     18  C   UNL     1      36.648  35.821  13.514  1.00  0.00     0.140 A 
ATOM     19  N   UNL     1      35.745  34.019  12.688  1.00  0.00    -0.135 NA
ATOM     20  N   UNL     1      37.001  33.806  13.017  1.00  0.00    -0.062 NA
ENDBRANCH   1  15
TORSDOF 1
BEGIN_RES LYS A 135
REMARK  4 active torsions:
REMARK  status: ('A' for Active; 'I' for Inactive)
REMARK    1  A    between atoms: CA   and  CB  
REMARK    2  A    between atoms: CB   and  CG  
REMARK    3  A    between atoms: CG   and  CD  
REMARK    4  A    between atoms: CD   and  CE  
ROOT
ATOM      1  CA  LYS A 135      33.193  34.663   9.290  1.00 25.02     0.186 C 
ENDROOT
BRANCH   1   2
ATOM      2  CB  LYS A 135      32.060  35.360  10.034  1.00 26.63     0.034 C 
BRANCH   2   3
ATOM      3  CG  LYS A 135      30.864  35.659   9.167  1.00 29.45     0.005 C 
BRANCH   3   4
ATOM      4  CD  LYS A 135      30.337  34.387   8.523  1.00 32.00     0.041 C 
BRANCH   4   5
ATOM      5  CE  LYS A 135      28.823  34.422   8.436  1.00 34.25     0.338 C 
ATOM      6  NZ  LYS A 135      28.284  35.699   8.981  1.00 35.99     0.618 N 
ENDBRANCH   4   5
ENDBRANCH   3   4
ENDBRANCH   2   3
ENDBRANCH   1   2
END_RES LYS A 135
BEGIN_RES TYR A 136
REMARK  2 active torsions:
REMARK  status: ('A' for Active; 'I' for Inactive)
REMARK    5  A    between atoms: CA   and  CB  
REMARK    6  A    between atoms: CB   and  CG  
ROOT
ATOM      7  CA  TYR A 136      36.583  36.399   8.994  1.00 26.14     0.191 C 
ENDROOT
BRANCH   7   8
ATOM      8  CB  TYR A 136      37.367  36.835  10.240  1.00 28.16     0.060 C 
BRANCH   8   9
ATOM      9  CG  TYR A 136      37.163  38.292  10.573  1.00 31.88    -0.020 A 
ATOM     10  CD2 TYR A 136      35.920  38.770  10.995  1.00 32.67    -0.002 A 
ATOM     11  CE2 TYR A 136      35.740  40.126  11.301  1.00 33.89     0.027 A 
ATOM     12  CZ  TYR A 136      36.814  41.012  11.183  1.00 34.34     0.131 A 
ATOM     13  OH  TYR A 136      36.661  42.358  11.487  1.00 35.14    -0.190 OA
ATOM     14  CE1 TYR A 136      38.055  40.555  10.764  1.00 35.01     0.027 A 
ATOM     15  CD1 TYR A 136      38.220  39.203  10.457  1.00 33.57    -0.002 A 
ENDBRANCH   8   9
ENDBRANCH   7   8
END_RES TYR A 136
BEGIN_RES ASN A 133
REMARK  2 active torsions:
REMARK  status: ('A' for Active; 'I' for Inactive)
REMARK    7  A    between atoms: CA   and  CB  
REMARK    8  A    between atoms: CB   and  CG  
ROOT
ATOM     16  CA  ASN A 133      31.225  30.257  11.749  1.00 18.15     0.196 C 
ENDROOT
BRANCH  16  17
ATOM     17  CB  ASN A 133      30.092  31.240  11.460  1.00 18.27     0.126 C 
BRANCH  17  18
ATOM     18  CG  ASN A 133      28.750  30.583  11.360  1.00 18.94     0.276 C 
ATOM     19  OD1 ASN A 133      28.574  29.598  10.641  1.00 18.09    -0.269 OA
ATOM     20  ND2 ASN A 133      27.777  31.131  12.087  1.00 18.93    -0.107 N 
ENDBRANCH  17  18
ENDBRANCH  16  17
END_RES ASN A 133
