REMARK VINA RESULT:    -3.709      5.172      7.763
REMARK INTER + INTRA:          -7.691
REMARK INTER:                  -4.057
REMARK INTRA:                  -3.634
REMARK UNBOUND:                -3.332
REMARK SMILES Cc1cn(CC(=O)Nc2ncccn2)nn1
REMARK SMILES IDX 6 1 7 2 8 3 5 5 4 6 1 7 2 8 3 9 16 10 15 11 9 12 10 13 14 14
REMARK SMILES IDX 11 15 13 16 12 17
REMARK H PARENT 8 4
REMARK Flexibility Score: inf
ROOT
ATOM      1  C   UNL     1      28.032  27.621  20.748  1.00  0.00     0.248 C 
ATOM      2  O   UNL     1      27.987  28.295  21.807  1.00  0.00    -0.272 OA
ATOM      3  N   UNL     1      29.333  27.221  20.295  1.00  0.00    -0.293 N 
ATOM      4  H   UNL     1      29.392  26.663  19.420  1.00  0.00     0.173 HD
ENDROOT
BRANCH   1   5
ATOM      5  C   UNL     1      26.864  27.225  19.963  1.00  0.00     0.246 C 
BRANCH   5   6
ATOM      6  N   UNL     1      26.661  28.101  18.826  1.00  0.00    -0.243 N 
ATOM      7  C   UNL     1      24.788  29.577  16.026  1.00  0.00     0.070 C 
ATOM      8  C   UNL     1      25.753  29.146  17.084  1.00  0.00     0.080 A 
ATOM      9  C   UNL     1      25.555  28.198  18.075  1.00  0.00     0.134 A 
ATOM     10  N   UNL     1      27.011  29.598  17.284  1.00  0.00    -0.136 NA
ATOM     11  N   UNL     1      27.521  28.967  18.313  1.00  0.00    -0.067 NA
ENDBRANCH   5   6
ENDBRANCH   1   5
BRANCH   3  12
ATOM     12  C   UNL     1      30.512  27.560  20.992  1.00  0.00     0.229 A 
ATOM     13  N   UNL     1      30.968  26.824  22.014  1.00  0.00    -0.221 NA
ATOM     14  N   UNL     1      31.199  28.648  20.626  1.00  0.00    -0.221 NA
ATOM     15  C   UNL     1      32.091  27.131  22.692  1.00  0.00     0.117 A 
ATOM     16  C   UNL     1      32.334  29.034  21.245  1.00  0.00     0.117 A 
ATOM     17  C   UNL     1      32.786  28.270  22.289  1.00  0.00     0.040 A 
ENDBRANCH   3  12
TORSDOF 3
BEGIN_RES LYS A 135
REMARK  4 active torsions:
REMARK  status: ('A' for Active; 'I' for Inactive)
REMARK    1  A    between atoms: CA   and  CB  
REMARK    2  A    between atoms: CB   and  CG  
REMARK    3  A    between atoms: CG   and  CD  
REMARK    4  A    between atoms: CD   and  CE  
ROOT
ATOM      1  CA  LYS A 135      33.193  34.663   9.290  1.00 25.02     0.186 C 
ENDROOT
BRANCH   1   2
ATOM      2  CB  LYS A 135      32.060  35.360  10.034  1.00 26.63     0.034 C 
BRANCH   2   3
ATOM      3  CG  LYS A 135      30.804  35.510   9.215  1.00 29.45     0.005 C 
BRANCH   3   4
ATOM      4  CD  LYS A 135      30.128  34.162   9.018  1.00 32.00     0.041 C 
BRANCH   4   5
ATOM      5  CE  LYS A 135      28.670  34.348   8.641  1.00 34.25     0.338 C 
ATOM      6  NZ  LYS A 135      27.773  33.686   9.628  1.00 35.99     0.618 N 
ENDBRANCH   4   5
ENDBRANCH   3   4
ENDBRANCH   2   3
ENDBRANCH   1   2
END_RES LYS A 135
BEGIN_RES TYR A 136
REMARK  2 active torsions:
REMARK  status: ('A' for Active; 'I' for Inactive)
REMARK    5  A    between atoms: CA   and  CB  
REMARK    6  A    between atoms: CB   and  CG  
ROOT
ATOM      7  CA  TYR A 136      36.583  36.399   8.994  1.00 26.14     0.191 C 
ENDROOT
BRANCH   7   8
ATOM      8  CB  TYR A 136      37.367  36.835  10.240  1.00 28.16     0.060 C 
BRANCH   8   9
ATOM      9  CG  TYR A 136      37.178  38.297  10.563  1.00 31.88    -0.020 A 
ATOM     10  CD2 TYR A 136      36.574  39.166   9.651  1.00 32.67    -0.002 A 
ATOM     11  CE2 TYR A 136      36.404  40.523   9.960  1.00 33.89     0.027 A 
ATOM     12  CZ  TYR A 136      36.843  41.014  11.192  1.00 34.34     0.131 A 
ATOM     13  OH  TYR A 136      36.679  42.352  11.522  1.00 35.14    -0.190 OA
ATOM     14  CE1 TYR A 136      37.446  40.165  12.108  1.00 35.01     0.027 A 
ATOM     15  CD1 TYR A 136      37.615  38.817  11.787  1.00 33.57    -0.002 A 
ENDBRANCH   8   9
ENDBRANCH   7   8
END_RES TYR A 136
BEGIN_RES ASN A 133
REMARK  2 active torsions:
REMARK  status: ('A' for Active; 'I' for Inactive)
REMARK    7  A    between atoms: CA   and  CB  
REMARK    8  A    between atoms: CB   and  CG  
ROOT
ATOM     16  CA  ASN A 133      31.225  30.257  11.749  1.00 18.15     0.196 C 
ENDROOT
BRANCH  16  17
ATOM     17  CB  ASN A 133      30.092  31.240  11.460  1.00 18.27     0.126 C 
BRANCH  17  18
ATOM     18  CG  ASN A 133      28.750  30.583  11.360  1.00 18.94     0.276 C 
ATOM     19  OD1 ASN A 133      28.567  29.615  10.620  1.00 18.09    -0.269 OA
ATOM     20  ND2 ASN A 133      27.785  31.111  12.112  1.00 18.93    -0.107 N 
ENDBRANCH  17  18
ENDBRANCH  16  17
END_RES ASN A 133
