REMARK VINA RESULT:    -3.532      3.298      4.357
REMARK INTER + INTRA:          -7.184
REMARK INTER:                  -4.091
REMARK INTRA:                  -3.093
REMARK UNBOUND:                -3.239
REMARK SMILES Cc1cn(Cc2ccc(Br)cc2)nn1
REMARK SMILES IDX 5 1 4 2 1 3 2 4 3 5 14 6 13 7 6 8 7 9 12 10 8 11 11 12 9 13
REMARK SMILES IDX 10 14
REMARK H PARENT
REMARK Flexibility Score: inf
ROOT
ATOM      1  C   UNL     1      31.819  35.560  16.375  1.00  0.00     0.181 C 
ENDROOT
BRANCH   1   2
ATOM      2  N   UNL     1      32.494  35.878  15.110  1.00  0.00    -0.248 N 
ATOM      3  C   UNL     1      32.865  37.390  11.772  1.00  0.00     0.070 C 
ATOM      4  C   UNL     1      32.973  36.672  13.091  1.00  0.00     0.080 A 
ATOM      5  C   UNL     1      32.019  36.618  14.092  1.00  0.00     0.134 A 
ATOM      6  N   UNL     1      34.006  35.949  13.552  1.00  0.00    -0.136 NA
ATOM      7  N   UNL     1      33.694  35.493  14.748  1.00  0.00    -0.067 NA
ENDBRANCH   1   2
BRANCH   1   8
ATOM      8  C   UNL     1      31.041  34.312  16.215  1.00  0.00    -0.026 A 
ATOM      9  C   UNL     1      31.702  33.132  15.982  1.00  0.00     0.007 A 
ATOM     10  C   UNL     1      29.668  34.312  16.294  1.00  0.00     0.007 A 
ATOM     11  C   UNL     1      30.955  31.986  15.837  1.00  0.00     0.016 A 
ATOM     12  C   UNL     1      28.933  33.134  16.143  1.00  0.00     0.016 A 
ATOM     13  C   UNL     1      29.580  31.943  15.909  1.00  0.00     0.017 A 
ATOM     14  Br  UNL     1      28.547  30.363  15.709  1.00  0.00    -0.051 Br
ENDBRANCH   1   8
TORSDOF 2
BEGIN_RES LYS A 135
REMARK  4 active torsions:
REMARK  status: ('A' for Active; 'I' for Inactive)
REMARK    1  A    between atoms: CA   and  CB  
REMARK    2  A    between atoms: CB   and  CG  
REMARK    3  A    between atoms: CG   and  CD  
REMARK    4  A    between atoms: CD   and  CE  
ROOT
ATOM      1  CA  LYS A 135      33.193  34.663   9.290  1.00 25.02     0.186 C 
ENDROOT
BRANCH   1   2
ATOM      2  CB  LYS A 135      32.060  35.360  10.034  1.00 26.63     0.034 C 
BRANCH   2   3
ATOM      3  CG  LYS A 135      30.813  35.534   9.206  1.00 29.45     0.005 C 
BRANCH   3   4
ATOM      4  CD  LYS A 135      30.163  34.187   8.925  1.00 32.00     0.041 C 
BRANCH   4   5
ATOM      5  CE  LYS A 135      28.691  34.363   8.604  1.00 34.25     0.338 C 
ATOM      6  NZ  LYS A 135      27.836  33.708   9.632  1.00 35.99     0.618 N 
ENDBRANCH   4   5
ENDBRANCH   3   4
ENDBRANCH   2   3
ENDBRANCH   1   2
END_RES LYS A 135
BEGIN_RES TYR A 136
REMARK  2 active torsions:
REMARK  status: ('A' for Active; 'I' for Inactive)
REMARK    5  A    between atoms: CA   and  CB  
REMARK    6  A    between atoms: CB   and  CG  
ROOT
ATOM      7  CA  TYR A 136      36.583  36.399   8.994  1.00 26.14     0.191 C 
ENDROOT
BRANCH   7   8
ATOM      8  CB  TYR A 136      37.367  36.835  10.240  1.00 28.16     0.060 C 
BRANCH   8   9
ATOM      9  CG  TYR A 136      36.708  37.980  10.969  1.00 31.88    -0.020 A 
ATOM     10  CD2 TYR A 136      36.090  39.021  10.273  1.00 32.67    -0.002 A 
ATOM     11  CE2 TYR A 136      35.482  40.080  10.959  1.00 33.89     0.027 A 
ATOM     12  CZ  TYR A 136      35.493  40.099  12.356  1.00 34.34     0.131 A 
ATOM     13  OH  TYR A 136      34.890  41.134  13.057  1.00 35.14    -0.190 OA
ATOM     14  CE1 TYR A 136      36.103  39.074  13.064  1.00 35.01     0.027 A 
ATOM     15  CD1 TYR A 136      36.711  38.027  12.369  1.00 33.57    -0.002 A 
ENDBRANCH   8   9
ENDBRANCH   7   8
END_RES TYR A 136
BEGIN_RES ASN A 133
REMARK  2 active torsions:
REMARK  status: ('A' for Active; 'I' for Inactive)
REMARK    7  A    between atoms: CA   and  CB  
REMARK    8  A    between atoms: CB   and  CG  
ROOT
ATOM     16  CA  ASN A 133      31.225  30.257  11.749  1.00 18.15     0.196 C 
ENDROOT
BRANCH  16  17
ATOM     17  CB  ASN A 133      30.092  31.240  11.460  1.00 18.27     0.126 C 
BRANCH  17  18
ATOM     18  CG  ASN A 133      28.747  30.586  11.380  1.00 18.94     0.276 C 
ATOM     19  OD1 ASN A 133      28.555  29.611  10.651  1.00 18.09    -0.269 OA
ATOM     20  ND2 ASN A 133      27.791  31.125  12.135  1.00 18.93    -0.107 N 
ENDBRANCH  17  18
ENDBRANCH  16  17
END_RES ASN A 133
