REMARK VINA RESULT:    -3.689      8.228     16.453
REMARK INTER + INTRA:          -6.904
REMARK INTER:                  -3.712
REMARK INTRA:                  -3.192
REMARK UNBOUND:                -2.999
REMARK SMILES Cc1cn([C@@H]2C[C@H]3CC[C@@H](C2)N3C)nn1
REMARK SMILES IDX 5 1 11 2 10 3 12 4 13 5 7 6 6 7 8 8 9 9 4 10 1 11 2 12 3 13
REMARK SMILES IDX 15 14 14 15
REMARK H PARENT
REMARK Flexibility Score: inf
ROOT
ATOM      1  C   UNL     1      40.910  34.620  13.293  1.00  0.00     0.112 C 
ATOM      2  C   UNL     1      41.354  33.522  12.399  1.00  0.00     0.046 C 
ATOM      3  C   UNL     1      42.432  33.852  11.446  1.00  0.00     0.058 C 
ATOM      4  N   UNL     1      42.372  35.186  10.898  1.00  0.00    -0.300 NA
ATOM      5  C   UNL     1      43.408  35.365   9.932  1.00  0.00     0.105 C 
ATOM      6  C   UNL     1      42.604  35.984  12.114  1.00  0.00     0.058 C 
ATOM      7  C   UNL     1      41.245  35.998  12.813  1.00  0.00     0.046 C 
ATOM      8  C   UNL     1      43.633  35.242  12.912  1.00  0.00     0.021 C 
ATOM      9  C   UNL     1      43.772  33.905  12.191  1.00  0.00     0.021 C 
ENDROOT
BRANCH   1  10
ATOM     10  N   UNL     1      39.485  34.467  13.531  1.00  0.00    -0.249 N 
ATOM     11  C   UNL     1      35.949  34.037  12.728  1.00  0.00     0.070 C 
ATOM     12  C   UNL     1      37.276  34.209  13.337  1.00  0.00     0.080 A 
ATOM     13  C   UNL     1      38.480  34.321  12.648  1.00  0.00     0.134 A 
ATOM     14  N   UNL     1      37.621  34.293  14.636  1.00  0.00    -0.136 NA
ATOM     15  N   UNL     1      38.913  34.444  14.728  1.00  0.00    -0.067 NA
ENDBRANCH   1  10
TORSDOF 1
BEGIN_RES LYS A 135
REMARK  4 active torsions:
REMARK  status: ('A' for Active; 'I' for Inactive)
REMARK    1  A    between atoms: CA   and  CB  
REMARK    2  A    between atoms: CB   and  CG  
REMARK    3  A    between atoms: CG   and  CD  
REMARK    4  A    between atoms: CD   and  CE  
ROOT
ATOM      1  CA  LYS A 135      33.193  34.663   9.290  1.00 25.02     0.186 C 
ENDROOT
BRANCH   1   2
ATOM      2  CB  LYS A 135      32.060  35.360  10.034  1.00 26.63     0.034 C 
BRANCH   2   3
ATOM      3  CG  LYS A 135      30.856  35.639   9.172  1.00 29.45     0.005 C 
BRANCH   3   4
ATOM      4  CD  LYS A 135      30.336  34.355   8.544  1.00 32.00     0.041 C 
BRANCH   4   5
ATOM      5  CE  LYS A 135      28.821  34.312   8.597  1.00 34.25     0.338 C 
ATOM      6  NZ  LYS A 135      28.222  35.159   7.528  1.00 35.99     0.618 N 
ENDBRANCH   4   5
ENDBRANCH   3   4
ENDBRANCH   2   3
ENDBRANCH   1   2
END_RES LYS A 135
BEGIN_RES TYR A 136
REMARK  2 active torsions:
REMARK  status: ('A' for Active; 'I' for Inactive)
REMARK    5  A    between atoms: CA   and  CB  
REMARK    6  A    between atoms: CB   and  CG  
ROOT
ATOM      7  CA  TYR A 136      36.583  36.399   8.994  1.00 26.14     0.191 C 
ENDROOT
BRANCH   7   8
ATOM      8  CB  TYR A 136      37.367  36.835  10.240  1.00 28.16     0.060 C 
BRANCH   8   9
ATOM      9  CG  TYR A 136      37.239  38.312  10.519  1.00 31.88    -0.020 A 
ATOM     10  CD2 TYR A 136      36.539  39.154   9.651  1.00 32.67    -0.002 A 
ATOM     11  CE2 TYR A 136      36.427  40.525   9.918  1.00 33.89     0.027 A 
ATOM     12  CZ  TYR A 136      37.021  41.059  11.064  1.00 34.34     0.131 A 
ATOM     13  OH  TYR A 136      36.917  42.413  11.352  1.00 35.14    -0.190 OA
ATOM     14  CE1 TYR A 136      37.721  40.238  11.936  1.00 35.01     0.027 A 
ATOM     15  CD1 TYR A 136      37.831  38.875  11.656  1.00 33.57    -0.002 A 
ENDBRANCH   8   9
ENDBRANCH   7   8
END_RES TYR A 136
BEGIN_RES ASN A 133
REMARK  2 active torsions:
REMARK  status: ('A' for Active; 'I' for Inactive)
REMARK    7  A    between atoms: CA   and  CB  
REMARK    8  A    between atoms: CB   and  CG  
ROOT
ATOM     16  CA  ASN A 133      31.225  30.257  11.749  1.00 18.15     0.196 C 
ENDROOT
BRANCH  16  17
ATOM     17  CB  ASN A 133      30.092  31.240  11.460  1.00 18.27     0.126 C 
BRANCH  17  18
ATOM     18  CG  ASN A 133      28.750  30.584  11.364  1.00 18.94     0.276 C 
ATOM     19  OD1 ASN A 133      28.567  29.606  10.636  1.00 18.09    -0.269 OA
ATOM     20  ND2 ASN A 133      27.783  31.123  12.106  1.00 18.93    -0.107 N 
ENDBRANCH  17  18
ENDBRANCH  16  17
END_RES ASN A 133
