REMARK VINA RESULT:    -2.402      5.458      6.935
REMARK INTER + INTRA:          -5.725
REMARK INTER:                  -3.226
REMARK INTRA:                  -2.500
REMARK UNBOUND:                -2.973
REMARK SMILES Cc1cn(CCO)nn1
REMARK SMILES IDX 5 1 4 2 1 3 2 4 3 5 9 6 8 7 6 8 7 9
REMARK H PARENT 7 10
REMARK Flexibility Score: inf
ROOT
ATOM      1  C   UNL     1      38.424  38.884   2.831  1.00  0.00     0.174 C 
ENDROOT
BRANCH   1   2
ATOM      2  N   UNL     1      37.481  38.613   3.897  1.00  0.00    -0.250 N 
ATOM      3  C   UNL     1      36.092  39.409   7.189  1.00  0.00     0.070 C 
ATOM      4  C   UNL     1      36.463  38.878   5.850  1.00  0.00     0.080 A 
ATOM      5  C   UNL     1      37.452  39.357   5.017  1.00  0.00     0.134 A 
ATOM      6  N   UNL     1      35.935  37.842   5.168  1.00  0.00    -0.136 NA
ATOM      7  N   UNL     1      36.558  37.705   4.012  1.00  0.00    -0.067 NA
ENDBRANCH   1   2
BRANCH   1   8
ATOM      8  C   UNL     1      38.078  38.132   1.567  1.00  0.00     0.179 C 
BRANCH   8   9
ATOM      9  O   UNL     1      38.349  36.761   1.729  1.00  0.00    -0.394 OA
ATOM     10  H   UNL     1      38.555  36.613   2.687  1.00  0.00     0.210 HD
ENDBRANCH   8   9
ENDBRANCH   1   8
TORSDOF 3
BEGIN_RES LYS A 135
REMARK  4 active torsions:
REMARK  status: ('A' for Active; 'I' for Inactive)
REMARK    1  A    between atoms: CA   and  CB  
REMARK    2  A    between atoms: CB   and  CG  
REMARK    3  A    between atoms: CG   and  CD  
REMARK    4  A    between atoms: CD   and  CE  
ROOT
ATOM      1  CA  LYS A 135      33.193  34.663   9.290  1.00 25.02     0.186 C 
ENDROOT
BRANCH   1   2
ATOM      2  CB  LYS A 135      32.060  35.360  10.034  1.00 26.63     0.034 C 
BRANCH   2   3
ATOM      3  CG  LYS A 135      30.717  35.205   9.368  1.00 29.45     0.005 C 
BRANCH   3   4
ATOM      4  CD  LYS A 135      30.228  36.541   8.830  1.00 32.00     0.041 C 
BRANCH   4   5
ATOM      5  CE  LYS A 135      31.048  37.680   9.405  1.00 34.25     0.338 C 
ATOM      6  NZ  LYS A 135      31.219  38.774   8.409  1.00 35.99     0.618 N 
ENDBRANCH   4   5
ENDBRANCH   3   4
ENDBRANCH   2   3
ENDBRANCH   1   2
END_RES LYS A 135
BEGIN_RES TYR A 136
REMARK  2 active torsions:
REMARK  status: ('A' for Active; 'I' for Inactive)
REMARK    5  A    between atoms: CA   and  CB  
REMARK    6  A    between atoms: CB   and  CG  
ROOT
ATOM      7  CA  TYR A 136      36.583  36.399   8.994  1.00 26.14     0.191 C 
ENDROOT
BRANCH   7   8
ATOM      8  CB  TYR A 136      37.367  36.835  10.240  1.00 28.16     0.060 C 
BRANCH   8   9
ATOM      9  CG  TYR A 136      37.304  38.324  10.473  1.00 31.88    -0.020 A 
ATOM     10  CD2 TYR A 136      36.140  38.933  10.948  1.00 32.67    -0.002 A 
ATOM     11  CE2 TYR A 136      36.091  40.318  11.160  1.00 33.89     0.027 A 
ATOM     12  CZ  TYR A 136      37.218  41.101  10.894  1.00 34.34     0.131 A 
ATOM     13  OH  TYR A 136      37.195  42.472  11.103  1.00 35.14    -0.190 OA
ATOM     14  CE1 TYR A 136      38.382  40.512  10.421  1.00 35.01     0.027 A 
ATOM     15  CD1 TYR A 136      38.416  39.133  10.207  1.00 33.57    -0.002 A 
ENDBRANCH   8   9
ENDBRANCH   7   8
END_RES TYR A 136
BEGIN_RES ASN A 133
REMARK  2 active torsions:
REMARK  status: ('A' for Active; 'I' for Inactive)
REMARK    7  A    between atoms: CA   and  CB  
REMARK    8  A    between atoms: CB   and  CG  
ROOT
ATOM     16  CA  ASN A 133      31.225  30.257  11.749  1.00 18.15     0.196 C 
ENDROOT
BRANCH  16  17
ATOM     17  CB  ASN A 133      30.092  31.240  11.460  1.00 18.27     0.126 C 
BRANCH  17  18
ATOM     18  CG  ASN A 133      28.752  30.582  11.347  1.00 18.94     0.276 C 
ATOM     19  OD1 ASN A 133      28.579  29.608  10.612  1.00 18.09    -0.269 OA
ATOM     20  ND2 ASN A 133      27.777  31.115  12.082  1.00 18.93    -0.107 N 
ENDBRANCH  17  18
ENDBRANCH  16  17
END_RES ASN A 133
