REMARK VINA RESULT:    -4.952      1.955      3.919
REMARK INTER + INTRA:          -7.468
REMARK INTER:                  -4.363
REMARK INTRA:                  -3.105
REMARK UNBOUND:                -2.227
REMARK SMILES Cc1ccc(-n2cc(C)nn2)cc1
REMARK SMILES IDX 5 1 4 2 3 3 2 4 1 5 13 6 12 7 6 8 9 9 8 10 7 11 10 12 11 13
REMARK H PARENT
REMARK Flexibility Score: inf
ROOT
ATOM      1  C   UNL     1      35.124  34.928  13.782  1.00  0.00     0.066 A 
ATOM      2  C   UNL     1      35.780  34.243  12.792  1.00  0.00     0.029 A 
ATOM      3  C   UNL     1      37.158  34.161  12.810  1.00  0.00     0.005 A 
ATOM      4  C   UNL     1      37.926  34.747  13.795  1.00  0.00    -0.051 A 
ATOM      5  C   UNL     1      39.410  34.646  13.794  1.00  0.00     0.044 C 
ATOM      6  C   UNL     1      37.240  35.433  14.782  1.00  0.00     0.005 A 
ATOM      7  C   UNL     1      35.860  35.525  14.784  1.00  0.00     0.029 A 
ENDROOT
BRANCH   1   8
ATOM      8  N   UNL     1      33.723  35.024  13.787  1.00  0.00    -0.220 N 
ATOM      9  C   UNL     1      30.449  34.521  15.290  1.00  0.00     0.070 C 
ATOM     10  C   UNL     1      31.619  34.862  14.425  1.00  0.00     0.080 A 
ATOM     11  C   UNL     1      32.921  34.596  14.780  1.00  0.00     0.140 A 
ATOM     12  N   UNL     1      31.661  35.440  13.232  1.00  0.00    -0.135 NA
ATOM     13  N   UNL     1      32.920  35.537  12.852  1.00  0.00    -0.062 NA
ENDBRANCH   1   8
TORSDOF 1
BEGIN_RES LYS A 135
REMARK  4 active torsions:
REMARK  status: ('A' for Active; 'I' for Inactive)
REMARK    1  A    between atoms: CA   and  CB  
REMARK    2  A    between atoms: CB   and  CG  
REMARK    3  A    between atoms: CG   and  CD  
REMARK    4  A    between atoms: CD   and  CE  
ROOT
ATOM      1  CA  LYS A 135      33.193  34.663   9.290  1.00 25.02     0.186 C 
ENDROOT
BRANCH   1   2
ATOM      2  CB  LYS A 135      32.060  35.360  10.034  1.00 26.63     0.034 C 
BRANCH   2   3
ATOM      3  CG  LYS A 135      30.725  34.681   9.871  1.00 29.45     0.005 C 
BRANCH   3   4
ATOM      4  CD  LYS A 135      30.357  34.567   8.399  1.00 32.00     0.041 C 
BRANCH   4   5
ATOM      5  CE  LYS A 135      28.850  34.539   8.228  1.00 34.25     0.338 C 
ATOM      6  NZ  LYS A 135      28.193  33.845   9.369  1.00 35.99     0.618 N 
ENDBRANCH   4   5
ENDBRANCH   3   4
ENDBRANCH   2   3
ENDBRANCH   1   2
END_RES LYS A 135
BEGIN_RES TYR A 136
REMARK  2 active torsions:
REMARK  status: ('A' for Active; 'I' for Inactive)
REMARK    5  A    between atoms: CA   and  CB  
REMARK    6  A    between atoms: CB   and  CG  
ROOT
ATOM      7  CA  TYR A 136      36.583  36.399   8.994  1.00 26.14     0.191 C 
ENDROOT
BRANCH   7   8
ATOM      8  CB  TYR A 136      37.367  36.835  10.240  1.00 28.16     0.060 C 
BRANCH   8   9
ATOM      9  CG  TYR A 136      36.736  38.013  10.940  1.00 31.88    -0.020 A 
ATOM     10  CD2 TYR A 136      36.771  38.132  12.331  1.00 32.67    -0.002 A 
ATOM     11  CE2 TYR A 136      36.181  39.230  12.971  1.00 33.89     0.027 A 
ATOM     12  CZ  TYR A 136      35.548  40.218  12.213  1.00 34.34     0.131 A 
ATOM     13  OH  TYR A 136      34.962  41.317  12.825  1.00 35.14    -0.190 OA
ATOM     14  CE1 TYR A 136      35.502  40.115  10.830  1.00 35.01     0.027 A 
ATOM     15  CD1 TYR A 136      36.088  39.014  10.204  1.00 33.57    -0.002 A 
ENDBRANCH   8   9
ENDBRANCH   7   8
END_RES TYR A 136
BEGIN_RES ASN A 133
REMARK  2 active torsions:
REMARK  status: ('A' for Active; 'I' for Inactive)
REMARK    7  A    between atoms: CA   and  CB  
REMARK    8  A    between atoms: CB   and  CG  
ROOT
ATOM     16  CA  ASN A 133      31.225  30.257  11.749  1.00 18.15     0.196 C 
ENDROOT
BRANCH  16  17
ATOM     17  CB  ASN A 133      30.092  31.240  11.460  1.00 18.27     0.126 C 
BRANCH  17  18
ATOM     18  CG  ASN A 133      28.752  30.581  11.343  1.00 18.94     0.276 C 
ATOM     19  OD1 ASN A 133      28.586  29.597  10.621  1.00 18.09    -0.269 OA
ATOM     20  ND2 ASN A 133      27.771  31.126  12.061  1.00 18.93    -0.107 N 
ENDBRANCH  17  18
ENDBRANCH  16  17
END_RES ASN A 133
