REMARK VINA RESULT:    -4.579      4.784      8.526
REMARK INTER + INTRA:          -7.027
REMARK INTER:                  -3.887
REMARK INTRA:                  -3.140
REMARK UNBOUND:                -2.181
REMARK SMILES Cc1cn(-c2ccccc2)nn1
REMARK SMILES IDX 5 1 6 2 7 3 8 4 9 5 10 6 4 7 1 8 2 9 3 10 12 11 11 12
REMARK H PARENT
REMARK Flexibility Score: inf
ROOT
ATOM      1  C   UNL     1      35.455  38.666   4.096  1.00  0.00     0.066 A 
ATOM      2  C   UNL     1      35.039  38.764   2.783  1.00  0.00     0.028 A 
ATOM      3  C   UNL     1      35.770  38.240   1.744  1.00  0.00     0.002 A 
ATOM      4  C   UNL     1      36.964  37.586   1.973  1.00  0.00     0.000 A 
ATOM      5  C   UNL     1      37.380  37.487   3.285  1.00  0.00     0.002 A 
ATOM      6  C   UNL     1      36.645  38.014   4.329  1.00  0.00     0.028 A 
ENDROOT
BRANCH   1   7
ATOM      7  N   UNL     1      34.702  39.207   5.184  1.00  0.00    -0.220 N 
ATOM      8  C   UNL     1      34.211  40.251   8.669  1.00  0.00     0.070 C 
ATOM      9  C   UNL     1      34.117  39.925   7.219  1.00  0.00     0.080 A 
ATOM     10  C   UNL     1      35.132  39.367   6.448  1.00  0.00     0.140 A 
ATOM     11  N   UNL     1      33.094  40.081   6.368  1.00  0.00    -0.135 NA
ATOM     12  N   UNL     1      33.456  39.653   5.170  1.00  0.00    -0.062 NA
ENDBRANCH   1   7
TORSDOF 1
BEGIN_RES LYS A 135
REMARK  4 active torsions:
REMARK  status: ('A' for Active; 'I' for Inactive)
REMARK    1  A    between atoms: CA   and  CB  
REMARK    2  A    between atoms: CB   and  CG  
REMARK    3  A    between atoms: CG   and  CD  
REMARK    4  A    between atoms: CD   and  CE  
ROOT
ATOM      1  CA  LYS A 135      33.193  34.663   9.290  1.00 25.02     0.186 C 
ENDROOT
BRANCH   1   2
ATOM      2  CB  LYS A 135      32.060  35.360  10.034  1.00 26.63     0.034 C 
BRANCH   2   3
ATOM      3  CG  LYS A 135      30.704  34.759   9.767  1.00 29.45     0.005 C 
BRANCH   3   4
ATOM      4  CD  LYS A 135      30.477  34.592   8.272  1.00 32.00     0.041 C 
BRANCH   4   5
ATOM      5  CE  LYS A 135      29.025  34.858   7.922  1.00 34.25     0.338 C 
ATOM      6  NZ  LYS A 135      28.910  35.578   6.623  1.00 35.99     0.618 N 
ENDBRANCH   4   5
ENDBRANCH   3   4
ENDBRANCH   2   3
ENDBRANCH   1   2
END_RES LYS A 135
BEGIN_RES TYR A 136
REMARK  2 active torsions:
REMARK  status: ('A' for Active; 'I' for Inactive)
REMARK    5  A    between atoms: CA   and  CB  
REMARK    6  A    between atoms: CB   and  CG  
ROOT
ATOM      7  CA  TYR A 136      36.583  36.399   8.994  1.00 26.14     0.191 C 
ENDROOT
BRANCH   7   8
ATOM      8  CB  TYR A 136      37.367  36.835  10.240  1.00 28.16     0.060 C 
BRANCH   8   9
ATOM      9  CG  TYR A 136      37.218  38.307  10.534  1.00 31.88    -0.020 A 
ATOM     10  CD2 TYR A 136      37.865  39.269   9.755  1.00 32.67    -0.002 A 
ATOM     11  CE2 TYR A 136      37.721  40.635  10.037  1.00 33.89     0.027 A 
ATOM     12  CZ  TYR A 136      36.922  41.041  11.109  1.00 34.34     0.131 A 
ATOM     13  OH  TYR A 136      36.759  42.388  11.403  1.00 35.14    -0.190 OA
ATOM     14  CE1 TYR A 136      36.273  40.099  11.894  1.00 35.01     0.027 A 
ATOM     15  CD1 TYR A 136      36.429  38.742  11.607  1.00 33.57    -0.002 A 
ENDBRANCH   8   9
ENDBRANCH   7   8
END_RES TYR A 136
BEGIN_RES ASN A 133
REMARK  2 active torsions:
REMARK  status: ('A' for Active; 'I' for Inactive)
REMARK    7  A    between atoms: CA   and  CB  
REMARK    8  A    between atoms: CB   and  CG  
ROOT
ATOM     16  CA  ASN A 133      31.225  30.257  11.749  1.00 18.15     0.196 C 
ENDROOT
BRANCH  16  17
ATOM     17  CB  ASN A 133      30.092  31.240  11.460  1.00 18.27     0.126 C 
BRANCH  17  18
ATOM     18  CG  ASN A 133      28.749  30.585  11.369  1.00 18.94     0.276 C 
ATOM     19  OD1 ASN A 133      28.560  29.615  10.633  1.00 18.09    -0.269 OA
ATOM     20  ND2 ASN A 133      27.789  31.116  12.126  1.00 18.93    -0.107 N 
ENDBRANCH  17  18
ENDBRANCH  16  17
END_RES ASN A 133
