REMARK VINA RESULT:    -2.903      6.506      7.052
REMARK INTER + INTRA:          -6.722
REMARK INTER:                  -3.531
REMARK INTRA:                  -3.191
REMARK UNBOUND:                -3.309
REMARK SMILES Cc1cn(CCC2OCCO2)nn1
REMARK SMILES IDX 5 1 4 2 1 3 2 4 3 5 13 6 12 7 6 8 7 9 8 10 11 11 9 12 10 13
REMARK H PARENT
REMARK Flexibility Score: inf
ROOT
ATOM      1  C   UNL     1      27.526  36.123   6.725  1.00  0.00     0.151 C 
ENDROOT
BRANCH   1   2
ATOM      2  N   UNL     1      26.400  36.358   7.590  1.00  0.00    -0.252 N 
ATOM      3  C   UNL     1      23.604  38.293   8.848  1.00  0.00     0.070 C 
ATOM      4  C   UNL     1      24.679  37.317   8.517  1.00  0.00     0.080 A 
ATOM      5  C   UNL     1      25.645  37.463   7.546  1.00  0.00     0.134 A 
ATOM      6  N   UNL     1      24.885  36.130   9.113  1.00  0.00    -0.136 NA
ATOM      7  N   UNL     1      25.932  35.564   8.536  1.00  0.00    -0.067 NA
ENDBRANCH   1   2
BRANCH   1   8
ATOM      8  C   UNL     1      28.523  37.214   6.923  1.00  0.00     0.086 C 
BRANCH   8   9
ATOM      9  C   UNL     1      28.926  37.882   5.623  1.00  0.00     0.251 C 
ATOM     10  O   UNL     1      29.525  39.101   5.817  1.00  0.00    -0.350 OA
ATOM     11  O   UNL     1      27.869  38.045   4.762  1.00  0.00    -0.350 OA
ATOM     12  C   UNL     1      28.840  40.048   5.093  1.00  0.00     0.192 C 
ATOM     13  C   UNL     1      27.489  39.389   4.904  1.00  0.00     0.192 C 
ENDBRANCH   8   9
ENDBRANCH   1   8
TORSDOF 3
BEGIN_RES LYS A 135
REMARK  4 active torsions:
REMARK  status: ('A' for Active; 'I' for Inactive)
REMARK    1  A    between atoms: CA   and  CB  
REMARK    2  A    between atoms: CB   and  CG  
REMARK    3  A    between atoms: CG   and  CD  
REMARK    4  A    between atoms: CD   and  CE  
ROOT
ATOM      1  CA  LYS A 135      33.193  34.663   9.290  1.00 25.02     0.186 C 
ENDROOT
BRANCH   1   2
ATOM      2  CB  LYS A 135      32.060  35.360  10.034  1.00 26.63     0.034 C 
BRANCH   2   3
ATOM      3  CG  LYS A 135      30.780  35.441   9.243  1.00 29.45     0.005 C 
BRANCH   3   4
ATOM      4  CD  LYS A 135      30.261  34.048   8.918  1.00 32.00     0.041 C 
BRANCH   4   5
ATOM      5  CE  LYS A 135      28.809  33.910   9.334  1.00 34.25     0.338 C 
ATOM      6  NZ  LYS A 135      28.584  34.476  10.693  1.00 35.99     0.618 N 
ENDBRANCH   4   5
ENDBRANCH   3   4
ENDBRANCH   2   3
ENDBRANCH   1   2
END_RES LYS A 135
BEGIN_RES TYR A 136
REMARK  2 active torsions:
REMARK  status: ('A' for Active; 'I' for Inactive)
REMARK    5  A    between atoms: CA   and  CB  
REMARK    6  A    between atoms: CB   and  CG  
ROOT
ATOM      7  CA  TYR A 136      36.583  36.399   8.994  1.00 26.14     0.191 C 
ENDROOT
BRANCH   7   8
ATOM      8  CB  TYR A 136      37.367  36.835  10.240  1.00 28.16     0.060 C 
BRANCH   8   9
ATOM      9  CG  TYR A 136      37.166  38.293  10.571  1.00 31.88    -0.020 A 
ATOM     10  CD2 TYR A 136      36.537  38.686  11.755  1.00 32.67    -0.002 A 
ATOM     11  CE2 TYR A 136      36.353  40.043  12.053  1.00 33.89     0.027 A 
ATOM     12  CZ  TYR A 136      36.802  41.016  11.157  1.00 34.34     0.131 A 
ATOM     13  OH  TYR A 136      36.637  42.366  11.435  1.00 35.14    -0.190 OA
ATOM     14  CE1 TYR A 136      37.428  40.645   9.976  1.00 35.01     0.027 A 
ATOM     15  CD1 TYR A 136      37.599  39.290   9.688  1.00 33.57    -0.002 A 
ENDBRANCH   8   9
ENDBRANCH   7   8
END_RES TYR A 136
BEGIN_RES ASN A 133
REMARK  2 active torsions:
REMARK  status: ('A' for Active; 'I' for Inactive)
REMARK    7  A    between atoms: CA   and  CB  
REMARK    8  A    between atoms: CB   and  CG  
ROOT
ATOM     16  CA  ASN A 133      31.225  30.257  11.749  1.00 18.15     0.196 C 
ENDROOT
BRANCH  16  17
ATOM     17  CB  ASN A 133      30.092  31.240  11.460  1.00 18.27     0.126 C 
BRANCH  17  18
ATOM     18  CG  ASN A 133      28.752  30.582  11.346  1.00 18.94     0.276 C 
ATOM     19  OD1 ASN A 133      28.586  29.592  10.631  1.00 18.09    -0.269 OA
ATOM     20  ND2 ASN A 133      27.770  31.132  12.058  1.00 18.93    -0.107 N 
ENDBRANCH  17  18
ENDBRANCH  16  17
END_RES ASN A 133
