REMARK VINA RESULT:    -3.568      9.961     16.346
REMARK INTER + INTRA:          -8.277
REMARK INTER:                  -5.537
REMARK INTRA:                  -2.740
REMARK UNBOUND:                -3.562
REMARK SMILES Cc1cn(CC(O)Cn2ccnc2[N+](=O)[O-])nn1
REMARK SMILES IDX 8 1 6 2 5 3 4 4 1 5 2 6 3 7 18 8 17 9 7 10 9 12 10 13 13 14
REMARK SMILES IDX 11 15 12 16 14 17 15 18 16 19
REMARK H PARENT 7 11
REMARK Flexibility Score: inf
ROOT
ATOM      1  C   UNL     1      38.595  34.220  12.488  1.00  0.00     0.239 C 
ENDROOT
BRANCH   1   2
ATOM      2  C   UNL     1      37.567  33.587  13.390  1.00  0.00     0.170 C 
BRANCH   2   3
ATOM      3  C   UNL     1      36.202  33.887  12.811  1.00  0.00     0.181 C 
BRANCH   3   4
ATOM      4  N   UNL     1      35.647  35.125  13.326  1.00  0.00    -0.250 N 
ATOM      5  C   UNL     1      33.376  37.961  13.335  1.00  0.00     0.070 C 
ATOM      6  C   UNL     1      34.412  36.893  13.545  1.00  0.00     0.080 A 
ATOM      7  C   UNL     1      34.635  35.783  12.757  1.00  0.00     0.134 A 
ATOM      8  N   UNL     1      35.292  36.872  14.561  1.00  0.00    -0.136 NA
ATOM      9  N   UNL     1      36.023  35.793  14.401  1.00  0.00    -0.067 NA
ENDBRANCH   3   4
ENDBRANCH   2   3
BRANCH   2  10
ATOM     10  O   UNL     1      37.768  32.219  13.398  1.00  0.00    -0.388 OA
ATOM     11  H   UNL     1      37.555  31.850  14.296  1.00  0.00     0.211 HD
ENDBRANCH   2  10
ENDBRANCH   1   2
BRANCH   1  12
ATOM     12  N   UNL     1      39.922  34.270  13.062  1.00  0.00    -0.227 N 
ATOM     13  C   UNL     1      40.970  33.605  12.559  1.00  0.00     0.204 A 
ATOM     14  C   UNL     1      40.286  34.992  14.127  1.00  0.00     0.434 A 
ATOM     15  C   UNL     1      42.055  33.911  13.330  1.00  0.00     0.245 A 
ATOM     16  N   UNL     1      41.628  34.751  14.275  1.00  0.00    -0.074 NA
BRANCH  14  17
ATOM     17  N   UNL     1      39.519  35.840  14.986  1.00  0.00    -0.047 N 
ATOM     18  O   UNL     1      39.279  37.003  14.612  1.00  0.00    -0.390 OA
ATOM     19  O   UNL     1      39.031  35.458  16.198  1.00  0.00    -0.390 OA
ENDBRANCH  14  17
ENDBRANCH   1  12
TORSDOF 6
BEGIN_RES LYS A 135
REMARK  4 active torsions:
REMARK  status: ('A' for Active; 'I' for Inactive)
REMARK    1  A    between atoms: CA   and  CB  
REMARK    2  A    between atoms: CB   and  CG  
REMARK    3  A    between atoms: CG   and  CD  
REMARK    4  A    between atoms: CD   and  CE  
ROOT
ATOM      1  CA  LYS A 135      33.193  34.663   9.290  1.00 25.02     0.186 C 
ENDROOT
BRANCH   1   2
ATOM      2  CB  LYS A 135      32.060  35.360  10.034  1.00 26.63     0.034 C 
BRANCH   2   3
ATOM      3  CG  LYS A 135      30.697  35.080   9.455  1.00 29.45     0.005 C 
BRANCH   3   4
ATOM      4  CD  LYS A 135      29.991  36.378   9.093  1.00 32.00     0.041 C 
BRANCH   4   5
ATOM      5  CE  LYS A 135      30.865  37.571   9.429  1.00 34.25     0.338 C 
ATOM      6  NZ  LYS A 135      30.921  38.532   8.293  1.00 35.99     0.618 N 
ENDBRANCH   4   5
ENDBRANCH   3   4
ENDBRANCH   2   3
ENDBRANCH   1   2
END_RES LYS A 135
BEGIN_RES TYR A 136
REMARK  2 active torsions:
REMARK  status: ('A' for Active; 'I' for Inactive)
REMARK    5  A    between atoms: CA   and  CB  
REMARK    6  A    between atoms: CB   and  CG  
ROOT
ATOM      7  CA  TYR A 136      36.583  36.399   8.994  1.00 26.14     0.191 C 
ENDROOT
BRANCH   7   8
ATOM      8  CB  TYR A 136      37.367  36.835  10.240  1.00 28.16     0.060 C 
BRANCH   8   9
ATOM      9  CG  TYR A 136      36.832  38.109  10.846  1.00 31.88    -0.020 A 
ATOM     10  CD2 TYR A 136      37.329  38.599  12.056  1.00 32.67    -0.002 A 
ATOM     11  CE2 TYR A 136      36.823  39.782  12.611  1.00 33.89     0.027 A 
ATOM     12  CZ  TYR A 136      35.811  40.482  11.950  1.00 34.34     0.131 A 
ATOM     13  OH  TYR A 136      35.300  41.660  12.478  1.00 35.14    -0.190 OA
ATOM     14  CE1 TYR A 136      35.304  40.009  10.748  1.00 35.01     0.027 A 
ATOM     15  CD1 TYR A 136      35.811  38.826  10.208  1.00 33.57    -0.002 A 
ENDBRANCH   8   9
ENDBRANCH   7   8
END_RES TYR A 136
BEGIN_RES ASN A 133
REMARK  2 active torsions:
REMARK  status: ('A' for Active; 'I' for Inactive)
REMARK    7  A    between atoms: CA   and  CB  
REMARK    8  A    between atoms: CB   and  CG  
ROOT
ATOM     16  CA  ASN A 133      31.225  30.257  11.749  1.00 18.15     0.196 C 
ENDROOT
BRANCH  16  17
ATOM     17  CB  ASN A 133      30.092  31.240  11.460  1.00 18.27     0.126 C 
BRANCH  17  18
ATOM     18  CG  ASN A 133      28.755  30.579  11.326  1.00 18.94     0.276 C 
ATOM     19  OD1 ASN A 133      28.591  29.619  10.570  1.00 18.09    -0.269 OA
ATOM     20  ND2 ASN A 133      27.774  31.094  12.066  1.00 18.93    -0.107 N 
ENDBRANCH  17  18
ENDBRANCH  16  17
END_RES ASN A 133
