REMARK VINA RESULT:    -3.603      1.843      3.766
REMARK INTER + INTRA:          -6.935
REMARK INTER:                  -3.804
REMARK INTRA:                  -3.132
REMARK UNBOUND:                -3.121
REMARK SMILES Cc1cn(-c2cccnc2)nn1
REMARK SMILES IDX 1 1 2 2 3 3 4 4 11 5 12 6 5 7 6 8 10 9 7 10 9 11 8 12
REMARK H PARENT
REMARK Flexibility Score: inf
ROOT
ATOM      1  C   UNL     1      25.045  38.277  -3.245  1.00  0.00     0.070 C 
ATOM      2  C   UNL     1      24.233  37.515  -2.258  1.00  0.00     0.080 A 
ATOM      3  C   UNL     1      24.111  36.146  -2.163  1.00  0.00     0.140 A 
ATOM      4  N   UNL     1      23.287  35.831  -1.143  1.00  0.00    -0.219 N 
ATOM      5  N   UNL     1      22.910  36.986  -0.618  1.00  0.00    -0.062 NA
ATOM      6  N   UNL     1      23.457  38.001  -1.261  1.00  0.00    -0.135 NA
ENDROOT
BRANCH   4   7
ATOM      7  C   UNL     1      22.922  34.518  -0.741  1.00  0.00     0.085 A 
ATOM      8  C   UNL     1      22.400  33.605  -1.628  1.00  0.00     0.031 A 
ATOM      9  C   UNL     1      23.097  34.146   0.574  1.00  0.00     0.139 A 
ATOM     10  C   UNL     1      22.051  32.333  -1.221  1.00  0.00     0.022 A 
ATOM     11  N   UNL     1      22.753  32.888   0.983  1.00  0.00    -0.262 NA
ATOM     12  C   UNL     1      22.243  32.009   0.105  1.00  0.00     0.111 A 
ENDBRANCH   4   7
TORSDOF 1
BEGIN_RES LYS A 135
REMARK  4 active torsions:
REMARK  status: ('A' for Active; 'I' for Inactive)
REMARK    1  A    between atoms: CA   and  CB  
REMARK    2  A    between atoms: CB   and  CG  
REMARK    3  A    between atoms: CG   and  CD  
REMARK    4  A    between atoms: CD   and  CE  
ROOT
ATOM      1  CA  LYS A 135      33.193  34.663   9.290  1.00 25.02     0.186 C 
ENDROOT
BRANCH   1   2
ATOM      2  CB  LYS A 135      32.060  35.360  10.034  1.00 26.63     0.034 C 
BRANCH   2   3
ATOM      3  CG  LYS A 135      30.731  34.662   9.900  1.00 29.45     0.005 C 
BRANCH   3   4
ATOM      4  CD  LYS A 135      30.323  34.562   8.438  1.00 32.00     0.041 C 
BRANCH   4   5
ATOM      5  CE  LYS A 135      28.812  34.533   8.308  1.00 34.25     0.338 C 
ATOM      6  NZ  LYS A 135      28.189  33.814   9.454  1.00 35.99     0.618 N 
ENDBRANCH   4   5
ENDBRANCH   3   4
ENDBRANCH   2   3
ENDBRANCH   1   2
END_RES LYS A 135
BEGIN_RES TYR A 136
REMARK  2 active torsions:
REMARK  status: ('A' for Active; 'I' for Inactive)
REMARK    5  A    between atoms: CA   and  CB  
REMARK    6  A    between atoms: CB   and  CG  
ROOT
ATOM      7  CA  TYR A 136      36.583  36.399   8.994  1.00 26.14     0.191 C 
ENDROOT
BRANCH   7   8
ATOM      8  CB  TYR A 136      37.367  36.835  10.240  1.00 28.16     0.060 C 
BRANCH   8   9
ATOM      9  CG  TYR A 136      37.202  38.304  10.545  1.00 31.88    -0.020 A 
ATOM     10  CD2 TYR A 136      36.019  38.799  11.096  1.00 32.67    -0.002 A 
ATOM     11  CE2 TYR A 136      35.875  40.166  11.373  1.00 33.89     0.027 A 
ATOM     12  CZ  TYR A 136      36.926  41.044  11.097  1.00 34.34     0.131 A 
ATOM     13  OH  TYR A 136      36.808  42.400  11.370  1.00 35.14    -0.190 OA
ATOM     14  CE1 TYR A 136      38.108  40.569  10.548  1.00 35.01     0.027 A 
ATOM     15  CD1 TYR A 136      38.237  39.207  10.270  1.00 33.57    -0.002 A 
ENDBRANCH   8   9
ENDBRANCH   7   8
END_RES TYR A 136
BEGIN_RES ASN A 133
REMARK  2 active torsions:
REMARK  status: ('A' for Active; 'I' for Inactive)
REMARK    7  A    between atoms: CA   and  CB  
REMARK    8  A    between atoms: CB   and  CG  
ROOT
ATOM     16  CA  ASN A 133      31.225  30.257  11.749  1.00 18.15     0.196 C 
ENDROOT
BRANCH  16  17
ATOM     17  CB  ASN A 133      30.092  31.240  11.460  1.00 18.27     0.126 C 
BRANCH  17  18
ATOM     18  CG  ASN A 133      28.755  30.579  11.329  1.00 18.94     0.276 C 
ATOM     19  OD1 ASN A 133      28.587  29.623  10.570  1.00 18.09    -0.269 OA
ATOM     20  ND2 ASN A 133      27.777  31.090  12.076  1.00 18.93    -0.107 N 
ENDBRANCH  17  18
ENDBRANCH  16  17
END_RES ASN A 133
