REMARK VINA RESULT:    -5.844      4.875      9.249
REMARK INTER + INTRA:         -10.818
REMARK INTER:                  -8.706
REMARK INTRA:                  -2.112
REMARK UNBOUND:                -3.778
REMARK SMILES Cc1cn(-c2ccc(-c3c4ccc(=O)cc-4oc4cc(O)ccc34)c(C(=O)[O-])c2)nn1
REMARK SMILES IDX 9 1 24 2 23 3 22 4 20 5 19 6 18 7 17 8 16 9 15 10 13 11
REMARK SMILES IDX 14 12 12 13 11 14 10 15 8 16 5 17 29 18 6 19 25 20 7 21 4 22
REMARK SMILES IDX 1 23 2 24 3 25 31 26 30 27 26 28 27 29 28 30 21 31
REMARK H PARENT 21 32
REMARK Flexibility Score: inf
ROOT
ATOM      1  C   UNL     1      27.083  36.636   7.837  1.00  0.00     0.004 A 
ATOM      2  C   UNL     1      28.015  35.721   8.277  1.00  0.00     0.026 A 
ATOM      3  C   UNL     1      29.331  35.841   7.886  1.00  0.00     0.016 A 
ATOM      4  C   UNL     1      30.302  34.943   8.305  1.00  0.00     0.047 A 
ATOM      5  C   UNL     1      29.915  33.913   9.134  1.00  0.00     0.119 A 
ATOM      6  C   UNL     1      28.598  33.792   9.527  1.00  0.00     0.093 A 
ATOM      7  C   UNL     1      27.612  34.689   9.113  1.00  0.00     0.139 A 
ATOM      8  O   UNL     1      26.367  34.544   9.506  1.00  0.00    -0.456 OA
ATOM      9  C   UNL     1      25.421  35.351   9.146  1.00  0.00     0.139 A 
ATOM     10  C   UNL     1      24.109  35.231   9.538  1.00  0.00     0.099 A 
ATOM     11  C   UNL     1      23.194  36.155   9.087  1.00  0.00     0.182 A 
ATOM     12  O   UNL     1      21.998  36.036   9.450  1.00  0.00    -0.290 OA
ATOM     13  C   UNL     1      23.544  37.202   8.254  1.00  0.00     0.053 A 
ATOM     14  C   UNL     1      24.840  37.383   7.822  1.00  0.00     0.016 A 
ATOM     15  C   UNL     1      25.782  36.467   8.261  1.00  0.00     0.026 A 
ENDROOT
BRANCH   1  16
ATOM     16  C   UNL     1      27.512  37.709   6.966  1.00  0.00    -0.008 A 
ATOM     17  C   UNL     1      28.354  39.824   5.345  1.00  0.00     0.067 A 
ATOM     18  C   UNL     1      28.341  39.971   6.716  1.00  0.00     0.039 A 
ATOM     19  C   UNL     1      27.950  38.627   4.773  1.00  0.00     0.029 A 
ATOM     20  C   UNL     1      27.920  38.913   7.502  1.00  0.00     0.007 A 
ATOM     21  C   UNL     1      27.536  37.588   5.589  1.00  0.00     0.012 A 
BRANCH  17  22
ATOM     22  N   UNL     1      28.775  40.877   4.488  1.00  0.00    -0.220 N 
ATOM     23  C   UNL     1      28.126  43.508   1.996  1.00  0.00     0.070 C 
ATOM     24  C   UNL     1      28.662  42.528   2.985  1.00  0.00     0.080 A 
ATOM     25  C   UNL     1      27.933  41.586   3.681  1.00  0.00     0.140 A 
ATOM     26  N   UNL     1      29.933  42.362   3.395  1.00  0.00    -0.135 NA
ATOM     27  N   UNL     1      29.964  41.373   4.287  1.00  0.00    -0.062 NA
ENDBRANCH  17  22
BRANCH  20  28
ATOM     28  C   UNL     1      27.912  39.083   8.950  1.00  0.00     0.072 C 
ATOM     29  O   UNL     1      26.912  39.532   9.557  1.00  0.00    -0.545 OA
ATOM     30  O   UNL     1      29.020  38.747   9.715  1.00  0.00    -0.545 OA
ENDBRANCH  20  28
ENDBRANCH   1  16
BRANCH   5  31
ATOM     31  O   UNL     1      30.891  32.999   9.565  1.00  0.00    -0.508 OA
ATOM     32  H   UNL     1      31.848  33.102   9.259  1.00  0.00     0.293 HD
ENDBRANCH   5  31
TORSDOF 4
BEGIN_RES LYS A 135
REMARK  4 active torsions:
REMARK  status: ('A' for Active; 'I' for Inactive)
REMARK    1  A    between atoms: CA   and  CB  
REMARK    2  A    between atoms: CB   and  CG  
REMARK    3  A    between atoms: CG   and  CD  
REMARK    4  A    between atoms: CD   and  CE  
ROOT
ATOM      1  CA  LYS A 135      33.193  34.663   9.290  1.00 25.02     0.186 C 
ENDROOT
BRANCH   1   2
ATOM      2  CB  LYS A 135      32.060  35.360  10.034  1.00 26.63     0.034 C 
BRANCH   2   3
ATOM      3  CG  LYS A 135      32.358  35.607  11.490  1.00 29.45     0.005 C 
BRANCH   3   4
ATOM      4  CD  LYS A 135      31.077  35.890  12.260  1.00 32.00     0.041 C 
BRANCH   4   5
ATOM      5  CE  LYS A 135      30.535  34.615  12.878  1.00 34.25     0.338 C 
ATOM      6  NZ  LYS A 135      29.048  34.646  12.957  1.00 35.99     0.618 N 
ENDBRANCH   4   5
ENDBRANCH   3   4
ENDBRANCH   2   3
ENDBRANCH   1   2
END_RES LYS A 135
BEGIN_RES TYR A 136
REMARK  2 active torsions:
REMARK  status: ('A' for Active; 'I' for Inactive)
REMARK    5  A    between atoms: CA   and  CB  
REMARK    6  A    between atoms: CB   and  CG  
ROOT
ATOM      7  CA  TYR A 136      36.583  36.399   8.994  1.00 26.14     0.191 C 
ENDROOT
BRANCH   7   8
ATOM      8  CB  TYR A 136      37.367  36.835  10.240  1.00 28.16     0.060 C 
BRANCH   8   9
ATOM      9  CG  TYR A 136      37.198  38.303  10.547  1.00 31.88    -0.020 A 
ATOM     10  CD2 TYR A 136      36.430  39.130   9.725  1.00 32.67    -0.002 A 
ATOM     11  CE2 TYR A 136      36.281  40.493  10.019  1.00 33.89     0.027 A 
ATOM     12  CZ  TYR A 136      36.907  41.032  11.145  1.00 34.34     0.131 A 
ATOM     13  OH  TYR A 136      36.768  42.377  11.459  1.00 35.14    -0.190 OA
ATOM     14  CE1 TYR A 136      37.675  40.225  11.972  1.00 35.01     0.027 A 
ATOM     15  CD1 TYR A 136      37.821  38.871  11.666  1.00 33.57    -0.002 A 
ENDBRANCH   8   9
ENDBRANCH   7   8
END_RES TYR A 136
BEGIN_RES ASN A 133
REMARK  2 active torsions:
REMARK  status: ('A' for Active; 'I' for Inactive)
REMARK    7  A    between atoms: CA   and  CB  
REMARK    8  A    between atoms: CB   and  CG  
ROOT
ATOM     16  CA  ASN A 133      31.225  30.257  11.749  1.00 18.15     0.196 C 
ENDROOT
BRANCH  16  17
ATOM     17  CB  ASN A 133      30.092  31.240  11.460  1.00 18.27     0.126 C 
BRANCH  17  18
ATOM     18  CG  ASN A 133      28.751  30.583  11.356  1.00 18.94     0.276 C 
ATOM     19  OD1 ASN A 133      28.575  29.601  10.632  1.00 18.09    -0.269 OA
ATOM     20  ND2 ASN A 133      27.778  31.125  12.087  1.00 18.93    -0.107 N 
ENDBRANCH  17  18
ENDBRANCH  16  17
END_RES ASN A 133
