REMARK VINA RESULT:    -4.633      2.997      5.149
REMARK INTER + INTRA:          -8.794
REMARK INTER:                  -5.690
REMARK INTRA:                  -3.104
REMARK UNBOUND:                -3.214
REMARK SMILES Cc1cn(-c2cccc(C=CC(=O)O)c2)nn1
REMARK SMILES IDX 10 1 11 2 9 3 5 4 15 5 6 6 7 7 8 8 4 9 1 10 2 11 3 12 17 13
REMARK SMILES IDX 16 14 12 15 13 16 14 17
REMARK H PARENT 14 18
REMARK Flexibility Score: inf
ROOT
ATOM      1  C   UNL     1      30.412  31.256  16.265  1.00  0.00     0.015 C 
ATOM      2  C   UNL     1      29.247  30.869  15.980  1.00  0.00     0.094 C 
ENDROOT
BRANCH   1   3
ATOM      3  C   UNL     1      31.042  32.533  16.368  1.00  0.00    -0.023 A 
ATOM      4  C   UNL     1      32.371  34.394  15.584  1.00  0.00     0.067 A 
ATOM      5  C   UNL     1      31.704  33.181  15.367  1.00  0.00     0.036 A 
ATOM      6  C   UNL     1      32.348  34.936  16.845  1.00  0.00     0.028 A 
ATOM      7  C   UNL     1      31.682  34.298  17.870  1.00  0.00     0.003 A 
ATOM      8  C   UNL     1      31.036  33.119  17.653  1.00  0.00     0.008 A 
BRANCH   4   9
ATOM      9  N   UNL     1      33.052  35.036  14.513  1.00  0.00    -0.220 N 
ATOM     10  C   UNL     1      33.633  37.685  12.013  1.00  0.00     0.070 C 
ATOM     11  C   UNL     1      33.612  36.505  12.923  1.00  0.00     0.080 A 
ATOM     12  C   UNL     1      32.710  36.209  13.923  1.00  0.00     0.140 A 
ATOM     13  N   UNL     1      34.492  35.477  12.942  1.00  0.00    -0.135 NA
ATOM     14  N   UNL     1      34.150  34.614  13.887  1.00  0.00    -0.062 NA
ENDBRANCH   4   9
ENDBRANCH   1   3
BRANCH   2  15
ATOM     15  C   UNL     1      28.015  31.469  15.624  1.00  0.00     0.328 C 
ATOM     16  O   UNL     1      27.774  32.666  15.370  1.00  0.00    -0.247 OA
BRANCH  15  17
ATOM     17  O   UNL     1      26.848  30.628  15.528  1.00  0.00    -0.478 OA
ATOM     18  H   UNL     1      26.129  30.959  14.883  1.00  0.00     0.297 HD
ENDBRANCH  15  17
ENDBRANCH   2  15
TORSDOF 4
BEGIN_RES LYS A 135
REMARK  4 active torsions:
REMARK  status: ('A' for Active; 'I' for Inactive)
REMARK    1  A    between atoms: CA   and  CB  
REMARK    2  A    between atoms: CB   and  CG  
REMARK    3  A    between atoms: CG   and  CD  
REMARK    4  A    between atoms: CD   and  CE  
ROOT
ATOM      1  CA  LYS A 135      33.193  34.663   9.290  1.00 25.02     0.186 C 
ENDROOT
BRANCH   1   2
ATOM      2  CB  LYS A 135      32.060  35.360  10.034  1.00 26.63     0.034 C 
BRANCH   2   3
ATOM      3  CG  LYS A 135      30.744  34.630   9.949  1.00 29.45     0.005 C 
BRANCH   3   4
ATOM      4  CD  LYS A 135      30.246  34.589   8.512  1.00 32.00     0.041 C 
BRANCH   4   5
ATOM      5  CE  LYS A 135      28.732  34.507   8.477  1.00 34.25     0.338 C 
ATOM      6  NZ  LYS A 135      28.116  35.839   8.733  1.00 35.99     0.618 N 
ENDBRANCH   4   5
ENDBRANCH   3   4
ENDBRANCH   2   3
ENDBRANCH   1   2
END_RES LYS A 135
BEGIN_RES TYR A 136
REMARK  2 active torsions:
REMARK  status: ('A' for Active; 'I' for Inactive)
REMARK    5  A    between atoms: CA   and  CB  
REMARK    6  A    between atoms: CB   and  CG  
ROOT
ATOM      7  CA  TYR A 136      36.583  36.399   8.994  1.00 26.14     0.191 C 
ENDROOT
BRANCH   7   8
ATOM      8  CB  TYR A 136      37.367  36.835  10.240  1.00 28.16     0.060 C 
BRANCH   8   9
ATOM      9  CG  TYR A 136      37.062  38.255  10.650  1.00 31.88    -0.020 A 
ATOM     10  CD2 TYR A 136      37.473  38.754  11.888  1.00 32.67    -0.002 A 
ATOM     11  CE2 TYR A 136      37.183  40.074  12.260  1.00 33.89     0.027 A 
ATOM     12  CZ  TYR A 136      36.474  40.901  11.386  1.00 34.34     0.131 A 
ATOM     13  OH  TYR A 136      36.182  42.214  11.730  1.00 35.14    -0.190 OA
ATOM     14  CE1 TYR A 136      36.057  40.422  10.153  1.00 35.01     0.027 A 
ATOM     15  CD1 TYR A 136      36.347  39.103   9.796  1.00 33.57    -0.002 A 
ENDBRANCH   8   9
ENDBRANCH   7   8
END_RES TYR A 136
BEGIN_RES ASN A 133
REMARK  2 active torsions:
REMARK  status: ('A' for Active; 'I' for Inactive)
REMARK    7  A    between atoms: CA   and  CB  
REMARK    8  A    between atoms: CB   and  CG  
ROOT
ATOM     16  CA  ASN A 133      31.225  30.257  11.749  1.00 18.15     0.196 C 
ENDROOT
BRANCH  16  17
ATOM     17  CB  ASN A 133      30.092  31.240  11.460  1.00 18.27     0.126 C 
BRANCH  17  18
ATOM     18  CG  ASN A 133      28.752  30.581  11.344  1.00 18.94     0.276 C 
ATOM     19  OD1 ASN A 133      28.587  29.594  10.625  1.00 18.09    -0.269 OA
ATOM     20  ND2 ASN A 133      27.770  31.129  12.057  1.00 18.93    -0.107 N 
ENDBRANCH  17  18
ENDBRANCH  16  17
END_RES ASN A 133
