REMARK VINA RESULT:    -4.217      4.473      8.603
REMARK INTER + INTRA:          -8.719
REMARK INTER:                  -7.012
REMARK INTRA:                  -1.708
REMARK UNBOUND:                -3.516
REMARK SMILES Cc1cn(C(C)CC(=O)c2ccccc2)nn1
REMARK SMILES IDX 7 1 5 2 6 3 4 4 1 5 2 6 3 7 17 8 16 9 8 10 9 11 10 12 11 13
REMARK SMILES IDX 15 14 12 15 14 16 13 17
REMARK H PARENT
REMARK Flexibility Score: inf
ROOT
ATOM      1  C   UNL     1      26.504  36.810   7.325  1.00  0.00     0.108 C 
ENDROOT
BRANCH   1   2
ATOM      2  C   UNL     1      26.877  38.156   7.828  1.00  0.00     0.114 C 
ATOM      3  C   UNL     1      26.474  38.473   9.213  1.00  0.00     0.034 C 
BRANCH   2   4
ATOM      4  N   UNL     1      26.366  39.148   6.900  1.00  0.00    -0.249 N 
ATOM      5  C   UNL     1      26.733  41.107   3.865  1.00  0.00     0.070 C 
ATOM      6  C   UNL     1      26.309  40.469   5.120  1.00  0.00     0.080 A 
ATOM      7  C   UNL     1      27.045  39.517   5.797  1.00  0.00     0.134 A 
ATOM      8  N   UNL     1      25.191  40.644   5.849  1.00  0.00    -0.136 NA
ATOM      9  N   UNL     1      25.257  39.840   6.906  1.00  0.00    -0.067 NA
ENDBRANCH   2   4
ENDBRANCH   1   2
BRANCH   1  10
ATOM     10  C   UNL     1      27.620  36.011   6.800  1.00  0.00     0.164 C 
ATOM     11  O   UNL     1      27.960  35.965   5.602  1.00  0.00    -0.294 OA
BRANCH  10  12
ATOM     12  C   UNL     1      28.386  35.215   7.752  1.00  0.00     0.018 A 
ATOM     13  C   UNL     1      29.771  35.095   7.671  1.00  0.00     0.012 A 
ATOM     14  C   UNL     1      27.792  34.525   8.801  1.00  0.00     0.012 A 
ATOM     15  C   UNL     1      30.503  34.344   8.567  1.00  0.00     0.001 A 
ATOM     16  C   UNL     1      28.476  33.775   9.705  1.00  0.00     0.001 A 
ATOM     17  C   UNL     1      29.843  33.680   9.592  1.00  0.00     0.000 A 
ENDBRANCH  10  12
ENDBRANCH   1  10
TORSDOF 4
BEGIN_RES LYS A 135
REMARK  4 active torsions:
REMARK  status: ('A' for Active; 'I' for Inactive)
REMARK    1  A    between atoms: CA   and  CB  
REMARK    2  A    between atoms: CB   and  CG  
REMARK    3  A    between atoms: CG   and  CD  
REMARK    4  A    between atoms: CD   and  CE  
ROOT
ATOM      1  CA  LYS A 135      33.193  34.663   9.290  1.00 25.02     0.186 C 
ENDROOT
BRANCH   1   2
ATOM      2  CB  LYS A 135      32.060  35.360  10.034  1.00 26.63     0.034 C 
BRANCH   2   3
ATOM      3  CG  LYS A 135      32.429  35.786  11.432  1.00 29.45     0.005 C 
BRANCH   3   4
ATOM      4  CD  LYS A 135      31.537  36.926  11.899  1.00 32.00     0.041 C 
BRANCH   4   5
ATOM      5  CE  LYS A 135      30.138  36.421  12.194  1.00 34.25     0.338 C 
ATOM      6  NZ  LYS A 135      29.144  37.016  11.259  1.00 35.99     0.618 N 
ENDBRANCH   4   5
ENDBRANCH   3   4
ENDBRANCH   2   3
ENDBRANCH   1   2
END_RES LYS A 135
BEGIN_RES TYR A 136
REMARK  2 active torsions:
REMARK  status: ('A' for Active; 'I' for Inactive)
REMARK    5  A    between atoms: CA   and  CB  
REMARK    6  A    between atoms: CB   and  CG  
ROOT
ATOM      7  CA  TYR A 136      36.583  36.399   8.994  1.00 26.14     0.191 C 
ENDROOT
BRANCH   7   8
ATOM      8  CB  TYR A 136      37.367  36.835  10.240  1.00 28.16     0.060 C 
BRANCH   8   9
ATOM      9  CG  TYR A 136      36.951  38.196  10.740  1.00 31.88    -0.020 A 
ATOM     10  CD2 TYR A 136      35.687  38.407  11.295  1.00 32.67    -0.002 A 
ATOM     11  CE2 TYR A 136      35.309  39.676  11.756  1.00 33.89     0.027 A 
ATOM     12  CZ  TYR A 136      36.205  40.744  11.660  1.00 34.34     0.131 A 
ATOM     13  OH  TYR A 136      35.855  42.007  12.115  1.00 35.14    -0.190 OA
ATOM     14  CE1 TYR A 136      37.464  40.552  11.110  1.00 35.01     0.027 A 
ATOM     15  CD1 TYR A 136      37.827  39.286  10.649  1.00 33.57    -0.002 A 
ENDBRANCH   8   9
ENDBRANCH   7   8
END_RES TYR A 136
BEGIN_RES ASN A 133
REMARK  2 active torsions:
REMARK  status: ('A' for Active; 'I' for Inactive)
REMARK    7  A    between atoms: CA   and  CB  
REMARK    8  A    between atoms: CB   and  CG  
ROOT
ATOM     16  CA  ASN A 133      31.225  30.257  11.749  1.00 18.15     0.196 C 
ENDROOT
BRANCH  16  17
ATOM     17  CB  ASN A 133      30.092  31.240  11.460  1.00 18.27     0.126 C 
BRANCH  17  18
ATOM     18  CG  ASN A 133      28.748  30.586  11.379  1.00 18.94     0.276 C 
ATOM     19  OD1 ASN A 133      28.553  29.616  10.644  1.00 18.09    -0.269 OA
ATOM     20  ND2 ASN A 133      27.794  31.118  12.142  1.00 18.93    -0.107 N 
ENDBRANCH  17  18
ENDBRANCH  16  17
END_RES ASN A 133
