REMARK VINA RESULT:    -4.081      1.850      2.615
REMARK INTER + INTRA:         -10.334
REMARK INTER:                  -6.305
REMARK INTRA:                  -4.029
REMARK UNBOUND:                -3.509
REMARK SMILES Cc1cn(CCCCCCCCCCC(=O)O)nn1
REMARK SMILES IDX 10 1 9 2 8 3 7 4 6 5 5 6 4 7 1 8 2 9 3 10 19 11 18 12 11 13
REMARK SMILES IDX 12 14 13 15 14 16 15 17 16 18 17 19
REMARK H PARENT 17 20
REMARK Flexibility Score: inf
ROOT
ATOM      1  C   UNL     1      34.873  37.415  15.710  1.00  0.00     0.000 C 
ENDROOT
BRANCH   1   2
ATOM      2  C   UNL     1      34.114  38.344  14.867  1.00  0.00     0.000 C 
BRANCH   2   3
ATOM      3  C   UNL     1      33.050  37.920  13.946  1.00  0.00     0.000 C 
BRANCH   3   4
ATOM      4  C   UNL     1      33.411  37.508  12.569  1.00  0.00     0.002 C 
BRANCH   4   5
ATOM      5  C   UNL     1      32.960  36.055  12.344  1.00  0.00     0.024 C 
BRANCH   5   6
ATOM      6  C   UNL     1      32.089  35.528  13.429  1.00  0.00     0.146 C 
BRANCH   6   7
ATOM      7  N   UNL     1      30.741  35.272  12.883  1.00  0.00    -0.252 N 
ATOM      8  C   UNL     1      27.405  36.329  11.776  1.00  0.00     0.070 C 
ATOM      9  C   UNL     1      28.666  35.643  12.153  1.00  0.00     0.080 A 
ATOM     10  C   UNL     1      29.804  36.229  12.667  1.00  0.00     0.134 A 
ATOM     11  N   UNL     1      28.961  34.331  12.077  1.00  0.00    -0.136 NA
ATOM     12  N   UNL     1      30.205  34.136  12.519  1.00  0.00    -0.067 NA
ENDBRANCH   6   7
ENDBRANCH   5   6
ENDBRANCH   4   5
ENDBRANCH   3   4
ENDBRANCH   2   3
ENDBRANCH   1   2
BRANCH   1  13
ATOM     13  C   UNL     1      36.089  36.759  15.193  1.00  0.00     0.000 C 
BRANCH  13  14
ATOM     14  C   UNL     1      35.755  35.354  14.648  1.00  0.00     0.001 C 
BRANCH  14  15
ATOM     15  C   UNL     1      36.493  35.049  13.382  1.00  0.00     0.012 C 
BRANCH  15  16
ATOM     16  C   UNL     1      37.348  33.792  13.542  1.00  0.00     0.122 C 
BRANCH  16  17
ATOM     17  C   UNL     1      38.611  33.926  12.777  1.00  0.00     0.303 C 
ATOM     18  O   UNL     1      39.069  35.039  12.433  1.00  0.00    -0.252 OA
BRANCH  17  19
ATOM     19  O   UNL     1      39.321  32.790  12.421  1.00  0.00    -0.481 OA
ATOM     20  H   UNL     1      39.404  32.458  11.480  1.00  0.00     0.296 HD
ENDBRANCH  17  19
ENDBRANCH  16  17
ENDBRANCH  15  16
ENDBRANCH  14  15
ENDBRANCH  13  14
ENDBRANCH   1  13
TORSDOF 12
BEGIN_RES LYS A 135
REMARK  4 active torsions:
REMARK  status: ('A' for Active; 'I' for Inactive)
REMARK    1  A    between atoms: CA   and  CB  
REMARK    2  A    between atoms: CB   and  CG  
REMARK    3  A    between atoms: CG   and  CD  
REMARK    4  A    between atoms: CD   and  CE  
ROOT
ATOM      1  CA  LYS A 135      33.193  34.663   9.290  1.00 25.02     0.186 C 
ENDROOT
BRANCH   1   2
ATOM      2  CB  LYS A 135      32.060  35.360  10.034  1.00 26.63     0.034 C 
BRANCH   2   3
ATOM      3  CG  LYS A 135      30.856  35.639   9.172  1.00 29.45     0.005 C 
BRANCH   3   4
ATOM      4  CD  LYS A 135      30.237  34.341   8.678  1.00 32.00     0.041 C 
BRANCH   4   5
ATOM      5  CE  LYS A 135      28.759  34.529   8.395  1.00 34.25     0.338 C 
ATOM      6  NZ  LYS A 135      28.546  35.270   7.121  1.00 35.99     0.618 N 
ENDBRANCH   4   5
ENDBRANCH   3   4
ENDBRANCH   2   3
ENDBRANCH   1   2
END_RES LYS A 135
BEGIN_RES TYR A 136
REMARK  2 active torsions:
REMARK  status: ('A' for Active; 'I' for Inactive)
REMARK    5  A    between atoms: CA   and  CB  
REMARK    6  A    between atoms: CB   and  CG  
ROOT
ATOM      7  CA  TYR A 136      36.583  36.399   8.994  1.00 26.14     0.191 C 
ENDROOT
BRANCH   7   8
ATOM      8  CB  TYR A 136      37.367  36.835  10.240  1.00 28.16     0.060 C 
BRANCH   8   9
ATOM      9  CG  TYR A 136      36.818  38.097  10.859  1.00 31.88    -0.020 A 
ATOM     10  CD2 TYR A 136      37.192  38.494  12.144  1.00 32.67    -0.002 A 
ATOM     11  CE2 TYR A 136      36.675  39.667  12.711  1.00 33.89     0.027 A 
ATOM     12  CZ  TYR A 136      35.775  40.450  11.984  1.00 34.34     0.131 A 
ATOM     13  OH  TYR A 136      35.255  41.619  12.522  1.00 35.14    -0.190 OA
ATOM     14  CE1 TYR A 136      35.391  40.070  10.706  1.00 35.01     0.027 A 
ATOM     15  CD1 TYR A 136      35.908  38.896  10.155  1.00 33.57    -0.002 A 
ENDBRANCH   8   9
ENDBRANCH   7   8
END_RES TYR A 136
BEGIN_RES ASN A 133
REMARK  2 active torsions:
REMARK  status: ('A' for Active; 'I' for Inactive)
REMARK    7  A    between atoms: CA   and  CB  
REMARK    8  A    between atoms: CB   and  CG  
ROOT
ATOM     16  CA  ASN A 133      31.225  30.257  11.749  1.00 18.15     0.196 C 
ENDROOT
BRANCH  16  17
ATOM     17  CB  ASN A 133      30.092  31.240  11.460  1.00 18.27     0.126 C 
BRANCH  17  18
ATOM     18  CG  ASN A 133      28.749  30.585  11.370  1.00 18.94     0.276 C 
ATOM     19  OD1 ASN A 133      28.531  29.684  10.557  1.00 18.09    -0.269 OA
ATOM     20  ND2 ASN A 133      27.822  31.037  12.214  1.00 18.93    -0.107 N 
ENDBRANCH  17  18
ENDBRANCH  16  17
END_RES ASN A 133
