REMARK VINA RESULT:    -3.587      7.874     12.022
REMARK INTER + INTRA:          -7.691
REMARK INTER:                  -4.215
REMARK INTRA:                  -3.475
REMARK UNBOUND:                -3.264
REMARK SMILES Cc1cn(CCNS(C)(=O)=O)nn1
REMARK SMILES IDX 6 1 5 2 4 3 1 4 2 5 3 6 13 7 12 8 7 9 8 11 10 12 11 13 9 14
REMARK H PARENT 7 10
REMARK Flexibility Score: inf
ROOT
ATOM      1  C   UNL     1      37.801  37.599   4.265  1.00  0.00     0.122 C 
ENDROOT
BRANCH   1   2
ATOM      2  C   UNL     1      39.204  38.218   4.262  1.00  0.00     0.162 C 
BRANCH   2   3
ATOM      3  N   UNL     1      40.137  37.120   4.550  1.00  0.00    -0.251 N 
ATOM      4  C   UNL     1      43.242  35.668   5.820  1.00  0.00     0.070 C 
ATOM      5  C   UNL     1      41.908  35.984   5.231  1.00  0.00     0.080 A 
ATOM      6  C   UNL     1      41.339  37.233   5.138  1.00  0.00     0.134 A 
ATOM      7  N   UNL     1      41.015  35.142   4.686  1.00  0.00    -0.136 NA
ATOM      8  N   UNL     1      39.968  35.839   4.288  1.00  0.00    -0.067 NA
ENDBRANCH   2   3
ENDBRANCH   1   2
BRANCH   1   9
ATOM      9  N   UNL     1      37.560  37.011   2.979  1.00  0.00    -0.214 NA
ATOM     10  H   UNL     1      37.329  36.013   3.040  1.00  0.00     0.141 HD
BRANCH   9  11
ATOM     11  S   UNL     1      36.391  37.913   2.106  1.00  0.00     0.208 S 
ATOM     12  O   UNL     1      35.609  37.017   1.193  1.00  0.00    -0.213 OA
ATOM     13  O   UNL     1      37.119  38.947   1.265  1.00  0.00    -0.213 OA
ATOM     14  C   UNL     1      35.351  38.770   3.233  1.00  0.00     0.176 C 
ENDBRANCH   9  11
ENDBRANCH   1   9
TORSDOF 4
BEGIN_RES LYS A 135
REMARK  4 active torsions:
REMARK  status: ('A' for Active; 'I' for Inactive)
REMARK    1  A    between atoms: CA   and  CB  
REMARK    2  A    between atoms: CB   and  CG  
REMARK    3  A    between atoms: CG   and  CD  
REMARK    4  A    between atoms: CD   and  CE  
ROOT
ATOM      1  CA  LYS A 135      33.193  34.663   9.290  1.00 25.02     0.186 C 
ENDROOT
BRANCH   1   2
ATOM      2  CB  LYS A 135      32.060  35.360  10.034  1.00 26.63     0.034 C 
BRANCH   2   3
ATOM      3  CG  LYS A 135      30.710  34.733   9.799  1.00 29.45     0.005 C 
BRANCH   3   4
ATOM      4  CD  LYS A 135      30.463  34.532   8.312  1.00 32.00     0.041 C 
BRANCH   4   5
ATOM      5  CE  LYS A 135      29.020  34.845   7.965  1.00 34.25     0.338 C 
ATOM      6  NZ  LYS A 135      28.922  35.523   6.643  1.00 35.99     0.618 N 
ENDBRANCH   4   5
ENDBRANCH   3   4
ENDBRANCH   2   3
ENDBRANCH   1   2
END_RES LYS A 135
BEGIN_RES TYR A 136
REMARK  2 active torsions:
REMARK  status: ('A' for Active; 'I' for Inactive)
REMARK    5  A    between atoms: CA   and  CB  
REMARK    6  A    between atoms: CB   and  CG  
ROOT
ATOM      7  CA  TYR A 136      36.583  36.399   8.994  1.00 26.14     0.191 C 
ENDROOT
BRANCH   7   8
ATOM      8  CB  TYR A 136      37.367  36.835  10.240  1.00 28.16     0.060 C 
BRANCH   8   9
ATOM      9  CG  TYR A 136      37.316  38.326  10.465  1.00 31.88    -0.020 A 
ATOM     10  CD2 TYR A 136      36.480  39.145   9.702  1.00 32.67    -0.002 A 
ATOM     11  CE2 TYR A 136      36.441  40.529   9.918  1.00 33.89     0.027 A 
ATOM     12  CZ  TYR A 136      37.246  41.099  10.907  1.00 34.34     0.131 A 
ATOM     13  OH  TYR A 136      37.219  42.467  11.144  1.00 35.14    -0.190 OA
ATOM     14  CE1 TYR A 136      38.083  40.301  11.674  1.00 35.01     0.027 A 
ATOM     15  CD1 TYR A 136      38.118  38.925  11.445  1.00 33.57    -0.002 A 
ENDBRANCH   8   9
ENDBRANCH   7   8
END_RES TYR A 136
BEGIN_RES ASN A 133
REMARK  2 active torsions:
REMARK  status: ('A' for Active; 'I' for Inactive)
REMARK    7  A    between atoms: CA   and  CB  
REMARK    8  A    between atoms: CB   and  CG  
ROOT
ATOM     16  CA  ASN A 133      31.225  30.257  11.749  1.00 18.15     0.196 C 
ENDROOT
BRANCH  16  17
ATOM     17  CB  ASN A 133      30.092  31.240  11.460  1.00 18.27     0.126 C 
BRANCH  17  18
ATOM     18  CG  ASN A 133      28.750  30.584  11.363  1.00 18.94     0.276 C 
ATOM     19  OD1 ASN A 133      28.565  29.613  10.627  1.00 18.09    -0.269 OA
ATOM     20  ND2 ASN A 133      27.786  31.115  12.114  1.00 18.93    -0.107 N 
ENDBRANCH  17  18
ENDBRANCH  16  17
END_RES ASN A 133
