REMARK VINA RESULT:    -4.535      9.594     14.258
REMARK INTER + INTRA:          -8.337
REMARK INTER:                  -5.205
REMARK INTRA:                  -3.132
REMARK UNBOUND:                -3.139
REMARK SMILES Cc1cn(-c2cccc(S(N)(=O)=O)c2)nn1
REMARK SMILES IDX 5 1 14 2 9 3 8 4 7 5 6 6 4 7 1 8 2 9 3 10 16 11 15 12 10 13
REMARK SMILES IDX 12 14 13 15 11 16
REMARK H PARENT 11 17 11 18
REMARK Flexibility Score: inf
ROOT
ATOM      1  C   UNL     1      22.091  34.597  -0.785  1.00  0.00     0.068 A 
ATOM      2  C   UNL     1      23.162  35.364  -1.205  1.00  0.00     0.050 A 
ATOM      3  C   UNL     1      23.015  36.686  -1.569  1.00  0.00     0.084 A 
ATOM      4  C   UNL     1      21.772  37.296  -1.525  1.00  0.00     0.022 A 
ATOM      5  C   UNL     1      20.688  36.550  -1.110  1.00  0.00     0.004 A 
ATOM      6  C   UNL     1      20.864  35.223  -0.749  1.00  0.00     0.028 A 
ENDROOT
BRANCH   1   7
ATOM      7  N   UNL     1      22.272  33.233  -0.415  1.00  0.00    -0.220 N 
ATOM      8  C   UNL     1      22.268  29.593  -0.960  1.00  0.00     0.070 C 
ATOM      9  C   UNL     1      22.355  31.001  -0.481  1.00  0.00     0.080 A 
ATOM     10  C   UNL     1      22.074  32.151  -1.196  1.00  0.00     0.140 A 
ATOM     11  N   UNL     1      22.722  31.425   0.737  1.00  0.00    -0.135 NA
ATOM     12  N   UNL     1      22.665  32.745   0.749  1.00  0.00    -0.062 NA
ENDBRANCH   1   7
BRANCH   3  13
ATOM     13  S   UNL     1      24.438  37.560  -2.084  1.00  0.00     0.238 S 
ATOM     14  O   UNL     1      24.670  38.778  -1.239  1.00  0.00    -0.207 OA
ATOM     15  O   UNL     1      24.236  37.978  -3.511  1.00  0.00    -0.207 OA
BRANCH  13  16
ATOM     16  N   UNL     1      25.806  36.520  -2.018  1.00  0.00    -0.225 NA
ATOM     17  H   UNL     1      26.680  36.989  -2.373  1.00  0.00     0.137 HD
ATOM     18  H   UNL     1      25.615  35.686  -2.620  1.00  0.00     0.137 HD
ENDBRANCH  13  16
ENDBRANCH   3  13
TORSDOF 3
BEGIN_RES LYS A 135
REMARK  4 active torsions:
REMARK  status: ('A' for Active; 'I' for Inactive)
REMARK    1  A    between atoms: CA   and  CB  
REMARK    2  A    between atoms: CB   and  CG  
REMARK    3  A    between atoms: CG   and  CD  
REMARK    4  A    between atoms: CD   and  CE  
ROOT
ATOM      1  CA  LYS A 135      33.193  34.663   9.290  1.00 25.02     0.186 C 
ENDROOT
BRANCH   1   2
ATOM      2  CB  LYS A 135      32.060  35.360  10.034  1.00 26.63     0.034 C 
BRANCH   2   3
ATOM      3  CG  LYS A 135      30.713  34.721   9.815  1.00 29.45     0.005 C 
BRANCH   3   4
ATOM      4  CD  LYS A 135      30.467  34.480   8.334  1.00 32.00     0.041 C 
BRANCH   4   5
ATOM      5  CE  LYS A 135      29.423  35.444   7.803  1.00 34.25     0.338 C 
ATOM      6  NZ  LYS A 135      28.057  34.859   7.897  1.00 35.99     0.618 N 
ENDBRANCH   4   5
ENDBRANCH   3   4
ENDBRANCH   2   3
ENDBRANCH   1   2
END_RES LYS A 135
BEGIN_RES TYR A 136
REMARK  2 active torsions:
REMARK  status: ('A' for Active; 'I' for Inactive)
REMARK    5  A    between atoms: CA   and  CB  
REMARK    6  A    between atoms: CB   and  CG  
ROOT
ATOM      7  CA  TYR A 136      36.583  36.399   8.994  1.00 26.14     0.191 C 
ENDROOT
BRANCH   7   8
ATOM      8  CB  TYR A 136      37.367  36.835  10.240  1.00 28.16     0.060 C 
BRANCH   8   9
ATOM      9  CG  TYR A 136      37.196  38.302  10.549  1.00 31.88    -0.020 A 
ATOM     10  CD2 TYR A 136      37.651  38.845  11.753  1.00 32.67    -0.002 A 
ATOM     11  CE2 TYR A 136      37.486  40.209  12.031  1.00 33.89     0.027 A 
ATOM     12  CZ  TYR A 136      36.859  41.037  11.096  1.00 34.34     0.131 A 
ATOM     13  OH  TYR A 136      36.691  42.391  11.347  1.00 35.14    -0.190 OA
ATOM     14  CE1 TYR A 136      36.400  40.514   9.896  1.00 35.01     0.027 A 
ATOM     15  CD1 TYR A 136      36.565  39.153   9.633  1.00 33.57    -0.002 A 
ENDBRANCH   8   9
ENDBRANCH   7   8
END_RES TYR A 136
BEGIN_RES ASN A 133
REMARK  2 active torsions:
REMARK  status: ('A' for Active; 'I' for Inactive)
REMARK    7  A    between atoms: CA   and  CB  
REMARK    8  A    between atoms: CB   and  CG  
ROOT
ATOM     16  CA  ASN A 133      31.225  30.257  11.749  1.00 18.15     0.196 C 
ENDROOT
BRANCH  16  17
ATOM     17  CB  ASN A 133      30.092  31.240  11.460  1.00 18.27     0.126 C 
BRANCH  17  18
ATOM     18  CG  ASN A 133      28.752  30.582  11.349  1.00 18.94     0.276 C 
ATOM     19  OD1 ASN A 133      28.581  29.599  10.625  1.00 18.09    -0.269 OA
ATOM     20  ND2 ASN A 133      27.774  31.125  12.072  1.00 18.93    -0.107 N 
ENDBRANCH  17  18
ENDBRANCH  16  17
END_RES ASN A 133
