REMARK VINA RESULT:    -4.311      2.926      7.233
REMARK INTER + INTRA:          -6.790
REMARK INTER:                  -5.319
REMARK INTRA:                  -1.471
REMARK UNBOUND:                -2.227
REMARK SMILES Cc1ccc(-n2cc(C)nn2)cc1
REMARK SMILES IDX 5 1 4 2 3 3 2 4 1 5 13 6 12 7 6 8 9 9 8 10 7 11 10 12 11 13
REMARK H PARENT
REMARK Flexibility Score: inf
ROOT
ATOM      1  C   UNL     1      26.711  35.508   8.519  1.00  0.00     0.066 A 
ATOM      2  C   UNL     1      27.262  34.695   9.475  1.00  0.00     0.029 A 
ATOM      3  C   UNL     1      28.580  34.299   9.365  1.00  0.00     0.005 A 
ATOM      4  C   UNL     1      29.389  34.687   8.316  1.00  0.00    -0.051 A 
ATOM      5  C   UNL     1      30.806  34.248   8.217  1.00  0.00     0.044 C 
ATOM      6  C   UNL     1      28.809  35.507   7.364  1.00  0.00     0.005 A 
ATOM      7  C   UNL     1      27.491  35.917   7.457  1.00  0.00     0.029 A 
ENDROOT
BRANCH   1   8
ATOM      8  N   UNL     1      25.374  35.925   8.610  1.00  0.00    -0.220 N 
ATOM      9  C   UNL     1      21.984  35.668   9.905  1.00  0.00     0.070 C 
ATOM     10  C   UNL     1      23.253  36.032   9.205  1.00  0.00     0.080 A 
ATOM     11  C   UNL     1      24.433  35.347   9.380  1.00  0.00     0.140 A 
ATOM     12  N   UNL     1      23.504  37.004   8.339  1.00  0.00    -0.135 NA
ATOM     13  N   UNL     1      24.772  36.939   7.984  1.00  0.00    -0.062 NA
ENDBRANCH   1   8
TORSDOF 1
BEGIN_RES LYS A 135
REMARK  4 active torsions:
REMARK  status: ('A' for Active; 'I' for Inactive)
REMARK    1  A    between atoms: CA   and  CB  
REMARK    2  A    between atoms: CB   and  CG  
REMARK    3  A    between atoms: CG   and  CD  
REMARK    4  A    between atoms: CD   and  CE  
ROOT
ATOM      1  CA  LYS A 135      33.193  34.663   9.290  1.00 25.02     0.186 C 
ENDROOT
BRANCH   1   2
ATOM      2  CB  LYS A 135      32.060  35.360  10.034  1.00 26.63     0.034 C 
BRANCH   2   3
ATOM      3  CG  LYS A 135      32.234  35.363  11.531  1.00 29.45     0.005 C 
BRANCH   3   4
ATOM      4  CD  LYS A 135      30.930  34.997  12.223  1.00 32.00     0.041 C 
BRANCH   4   5
ATOM      5  CE  LYS A 135      31.112  34.987  13.729  1.00 34.25     0.338 C 
ATOM      6  NZ  LYS A 135      31.440  36.347  14.239  1.00 35.99     0.618 N 
ENDBRANCH   4   5
ENDBRANCH   3   4
ENDBRANCH   2   3
ENDBRANCH   1   2
END_RES LYS A 135
BEGIN_RES TYR A 136
REMARK  2 active torsions:
REMARK  status: ('A' for Active; 'I' for Inactive)
REMARK    5  A    between atoms: CA   and  CB  
REMARK    6  A    between atoms: CB   and  CG  
ROOT
ATOM      7  CA  TYR A 136      36.583  36.399   8.994  1.00 26.14     0.191 C 
ENDROOT
BRANCH   7   8
ATOM      8  CB  TYR A 136      37.367  36.835  10.240  1.00 28.16     0.060 C 
BRANCH   8   9
ATOM      9  CG  TYR A 136      37.244  38.314  10.515  1.00 31.88    -0.020 A 
ATOM     10  CD2 TYR A 136      36.198  39.065   9.975  1.00 32.67    -0.002 A 
ATOM     11  CE2 TYR A 136      36.094  40.438  10.235  1.00 33.89     0.027 A 
ATOM     12  CZ  TYR A 136      37.046  41.066  11.042  1.00 34.34     0.131 A 
ATOM     13  OH  TYR A 136      36.959  42.423  11.319  1.00 35.14    -0.190 OA
ATOM     14  CE1 TYR A 136      38.093  40.335  11.586  1.00 35.01     0.027 A 
ATOM     15  CD1 TYR A 136      38.189  38.969  11.314  1.00 33.57    -0.002 A 
ENDBRANCH   8   9
ENDBRANCH   7   8
END_RES TYR A 136
BEGIN_RES ASN A 133
REMARK  2 active torsions:
REMARK  status: ('A' for Active; 'I' for Inactive)
REMARK    7  A    between atoms: CA   and  CB  
REMARK    8  A    between atoms: CB   and  CG  
ROOT
ATOM     16  CA  ASN A 133      31.225  30.257  11.749  1.00 18.15     0.196 C 
ENDROOT
BRANCH  16  17
ATOM     17  CB  ASN A 133      30.092  31.240  11.460  1.00 18.27     0.126 C 
BRANCH  17  18
ATOM     18  CG  ASN A 133      28.753  30.581  11.342  1.00 18.94     0.276 C 
ATOM     19  OD1 ASN A 133      28.585  29.602  10.613  1.00 18.09    -0.269 OA
ATOM     20  ND2 ASN A 133      27.772  31.120  12.067  1.00 18.93    -0.107 N 
ENDBRANCH  17  18
ENDBRANCH  16  17
END_RES ASN A 133
