REMARK VINA RESULT:    -5.357      2.961      4.608
REMARK INTER + INTRA:          -8.943
REMARK INTER:                  -5.719
REMARK INTRA:                  -3.224
REMARK UNBOUND:                -2.333
REMARK SMILES Cc1cn(-c2ccc(S(=O)(=O)Nc3nccs3)cc2)nn1
REMARK SMILES IDX 9 1 10 2 11 3 8 4 5 5 6 6 19 7 7 8 18 9 4 10 1 11 2 12 3 13
REMARK SMILES IDX 21 14 20 15 12 16 13 18 14 19 17 20 15 21 16 22
REMARK H PARENT 12 17
REMARK Flexibility Score: inf
ROOT
ATOM      1  S   UNL     1      38.562  34.223  13.118  1.00  0.00     0.263 S 
ATOM      2  O   UNL     1      38.403  32.872  12.501  1.00  0.00    -0.201 OA
ATOM      3  O   UNL     1      38.953  35.207  12.035  1.00  0.00    -0.201 OA
ENDROOT
BRANCH   1   4
ATOM      4  C   UNL     1      36.996  34.702  13.737  1.00  0.00     0.088 A 
ATOM      5  C   UNL     1      34.499  35.394  14.609  1.00  0.00     0.066 A 
ATOM      6  C   UNL     1      34.641  34.643  13.475  1.00  0.00     0.030 A 
ATOM      7  C   UNL     1      35.603  35.798  15.305  1.00  0.00     0.030 A 
ATOM      8  C   UNL     1      35.879  34.284  13.019  1.00  0.00     0.024 A 
ATOM      9  C   UNL     1      36.851  35.451  14.867  1.00  0.00     0.024 A 
BRANCH   5  10
ATOM     10  N   UNL     1      33.152  35.723  15.014  1.00  0.00    -0.220 N 
ATOM     11  C   UNL     1      30.094  35.408  17.018  1.00  0.00     0.070 C 
ATOM     12  C   UNL     1      31.206  35.721  16.085  1.00  0.00     0.080 A 
ATOM     13  C   UNL     1      32.451  35.135  15.999  1.00  0.00     0.140 A 
ATOM     14  N   UNL     1      31.205  36.661  15.124  1.00  0.00    -0.135 NA
ATOM     15  N   UNL     1      32.369  36.644  14.501  1.00  0.00    -0.062 NA
ENDBRANCH   5  10
ENDBRANCH   1   4
BRANCH   1  16
ATOM     16  N   UNL     1      39.744  34.218  14.345  1.00  0.00    -0.255 N 
ATOM     17  H   UNL     1      39.492  33.768  15.268  1.00  0.00     0.182 HD
BRANCH  16  18
ATOM     18  C   UNL     1      41.032  34.808  14.121  1.00  0.00     0.196 A 
ATOM     19  N   UNL     1      41.652  35.706  14.415  1.00  0.00    -0.228 NA
ATOM     20  S   UNL     1      42.218  33.892  12.960  1.00  0.00    -0.105 S 
ATOM     21  C   UNL     1      42.869  36.057  14.067  1.00  0.00     0.125 A 
ATOM     22  C   UNL     1      43.503  35.213  13.214  1.00  0.00     0.089 A 
ENDBRANCH  16  18
ENDBRANCH   1  16
TORSDOF 4
BEGIN_RES LYS A 135
REMARK  4 active torsions:
REMARK  status: ('A' for Active; 'I' for Inactive)
REMARK    1  A    between atoms: CA   and  CB  
REMARK    2  A    between atoms: CB   and  CG  
REMARK    3  A    between atoms: CG   and  CD  
REMARK    4  A    between atoms: CD   and  CE  
ROOT
ATOM      1  CA  LYS A 135      33.193  34.663   9.290  1.00 25.02     0.186 C 
ENDROOT
BRANCH   1   2
ATOM      2  CB  LYS A 135      32.060  35.360  10.034  1.00 26.63     0.034 C 
BRANCH   2   3
ATOM      3  CG  LYS A 135      30.842  35.608   9.182  1.00 29.45     0.005 C 
BRANCH   3   4
ATOM      4  CD  LYS A 135      30.288  34.298   8.643  1.00 32.00     0.041 C 
BRANCH   4   5
ATOM      5  CE  LYS A 135      28.787  34.230   8.849  1.00 34.25     0.338 C 
ATOM      6  NZ  LYS A 135      28.441  34.268  10.297  1.00 35.99     0.618 N 
ENDBRANCH   4   5
ENDBRANCH   3   4
ENDBRANCH   2   3
ENDBRANCH   1   2
END_RES LYS A 135
BEGIN_RES TYR A 136
REMARK  2 active torsions:
REMARK  status: ('A' for Active; 'I' for Inactive)
REMARK    5  A    between atoms: CA   and  CB  
REMARK    6  A    between atoms: CB   and  CG  
ROOT
ATOM      7  CA  TYR A 136      36.583  36.399   8.994  1.00 26.14     0.191 C 
ENDROOT
BRANCH   7   8
ATOM      8  CB  TYR A 136      37.367  36.835  10.240  1.00 28.16     0.060 C 
BRANCH   8   9
ATOM      9  CG  TYR A 136      36.746  38.025  10.929  1.00 31.88    -0.020 A 
ATOM     10  CD2 TYR A 136      36.124  37.898  12.172  1.00 32.67    -0.002 A 
ATOM     11  CE2 TYR A 136      35.549  39.010  12.803  1.00 33.89     0.027 A 
ATOM     12  CZ  TYR A 136      35.597  40.261  12.183  1.00 34.34     0.131 A 
ATOM     13  OH  TYR A 136      35.041  41.377  12.792  1.00 35.14    -0.190 OA
ATOM     14  CE1 TYR A 136      36.211  40.405  10.947  1.00 35.01     0.027 A 
ATOM     15  CD1 TYR A 136      36.774  39.290  10.326  1.00 33.57    -0.002 A 
ENDBRANCH   8   9
ENDBRANCH   7   8
END_RES TYR A 136
BEGIN_RES ASN A 133
REMARK  2 active torsions:
REMARK  status: ('A' for Active; 'I' for Inactive)
REMARK    7  A    between atoms: CA   and  CB  
REMARK    8  A    between atoms: CB   and  CG  
ROOT
ATOM     16  CA  ASN A 133      31.225  30.257  11.749  1.00 18.15     0.196 C 
ENDROOT
BRANCH  16  17
ATOM     17  CB  ASN A 133      30.092  31.240  11.460  1.00 18.27     0.126 C 
BRANCH  17  18
ATOM     18  CG  ASN A 133      28.750  30.583  11.357  1.00 18.94     0.276 C 
ATOM     19  OD1 ASN A 133      28.575  29.600  10.635  1.00 18.09    -0.269 OA
ATOM     20  ND2 ASN A 133      27.778  31.127  12.087  1.00 18.93    -0.107 N 
ENDBRANCH  17  18
ENDBRANCH  16  17
END_RES ASN A 133
