REMARK VINA RESULT:    -3.551      5.888      7.266
REMARK INTER + INTRA:          -8.056
REMARK INTER:                  -4.504
REMARK INTRA:                  -3.552
REMARK UNBOUND:                -3.466
REMARK SMILES Cc1cn([C@@H](CC(=O)O)C(=O)O)nn1
REMARK SMILES IDX 6 1 5 2 4 3 1 4 2 5 3 6 14 7 13 8 10 9 11 10 12 11 7 13 8 14
REMARK SMILES IDX 9 15
REMARK H PARENT 12 12 9 16
REMARK Flexibility Score: inf
ROOT
ATOM      1  C   UNL     1      37.991  35.043  12.141  1.00  0.00     0.161 C 
ENDROOT
BRANCH   1   2
ATOM      2  C   UNL     1      38.012  35.472  13.583  1.00  0.00     0.229 C 
BRANCH   2   3
ATOM      3  N   UNL     1      38.468  36.849  13.700  1.00  0.00    -0.237 N 
ATOM      4  C   UNL     1      38.202  40.361  14.505  1.00  0.00     0.070 C 
ATOM      5  C   UNL     1      38.588  38.994  14.089  1.00  0.00     0.080 A 
ATOM      6  C   UNL     1      37.767  37.902  14.171  1.00  0.00     0.135 A 
ATOM      7  N   UNL     1      39.758  38.616  13.582  1.00  0.00    -0.136 NA
ATOM      8  N   UNL     1      39.646  37.314  13.361  1.00  0.00    -0.066 NA
ENDBRANCH   2   3
BRANCH   2   9
ATOM      9  C   UNL     1      38.757  34.543  14.434  1.00  0.00     0.329 C 
ATOM     10  O   UNL     1      38.275  34.010  15.445  1.00  0.00    -0.250 OA
BRANCH   9  11
ATOM     11  O   UNL     1      40.071  34.211  14.132  1.00  0.00    -0.480 OA
ATOM     12  H   UNL     1      40.559  33.526  14.695  1.00  0.00     0.296 HD
ENDBRANCH   9  11
ENDBRANCH   2   9
ENDBRANCH   1   2
BRANCH   1  13
ATOM     13  C   UNL     1      37.148  33.836  12.047  1.00  0.00     0.306 C 
ATOM     14  O   UNL     1      35.989  33.809  12.531  1.00  0.00    -0.252 OA
BRANCH  13  15
ATOM     15  O   UNL     1      37.659  32.711  11.404  1.00  0.00    -0.481 OA
ATOM     16  H   UNL     1      37.409  31.769  11.738  1.00  0.00     0.296 HD
ENDBRANCH  13  15
ENDBRANCH   1  13
TORSDOF 6
BEGIN_RES LYS A 135
REMARK  4 active torsions:
REMARK  status: ('A' for Active; 'I' for Inactive)
REMARK    1  A    between atoms: CA   and  CB  
REMARK    2  A    between atoms: CB   and  CG  
REMARK    3  A    between atoms: CG   and  CD  
REMARK    4  A    between atoms: CD   and  CE  
ROOT
ATOM      1  CA  LYS A 135      33.193  34.663   9.290  1.00 25.02     0.186 C 
ENDROOT
BRANCH   1   2
ATOM      2  CB  LYS A 135      32.060  35.360  10.034  1.00 26.63     0.034 C 
BRANCH   2   3
ATOM      3  CG  LYS A 135      30.695  34.816   9.699  1.00 29.45     0.005 C 
BRANCH   3   4
ATOM      4  CD  LYS A 135      30.599  34.482   8.219  1.00 32.00     0.041 C 
BRANCH   4   5
ATOM      5  CE  LYS A 135      29.364  35.117   7.608  1.00 34.25     0.338 C 
ATOM      6  NZ  LYS A 135      28.124  34.622   8.268  1.00 35.99     0.618 N 
ENDBRANCH   4   5
ENDBRANCH   3   4
ENDBRANCH   2   3
ENDBRANCH   1   2
END_RES LYS A 135
BEGIN_RES TYR A 136
REMARK  2 active torsions:
REMARK  status: ('A' for Active; 'I' for Inactive)
REMARK    5  A    between atoms: CA   and  CB  
REMARK    6  A    between atoms: CB   and  CG  
ROOT
ATOM      7  CA  TYR A 136      36.583  36.399   8.994  1.00 26.14     0.191 C 
ENDROOT
BRANCH   7   8
ATOM      8  CB  TYR A 136      37.367  36.835  10.240  1.00 28.16     0.060 C 
BRANCH   8   9
ATOM      9  CG  TYR A 136      37.209  38.305  10.540  1.00 31.88    -0.020 A 
ATOM     10  CD2 TYR A 136      38.255  39.204  10.323  1.00 32.67    -0.002 A 
ATOM     11  CE2 TYR A 136      38.098  40.568  10.607  1.00 33.89     0.027 A 
ATOM     12  CZ  TYR A 136      36.883  41.036  11.113  1.00 34.34     0.131 A 
ATOM     13  OH  TYR A 136      36.703  42.383  11.394  1.00 35.14    -0.190 OA
ATOM     14  CE1 TYR A 136      35.833  40.157  11.335  1.00 35.01     0.027 A 
ATOM     15  CD1 TYR A 136      36.004  38.800  11.055  1.00 33.57    -0.002 A 
ENDBRANCH   8   9
ENDBRANCH   7   8
END_RES TYR A 136
BEGIN_RES ASN A 133
REMARK  2 active torsions:
REMARK  status: ('A' for Active; 'I' for Inactive)
REMARK    7  A    between atoms: CA   and  CB  
REMARK    8  A    between atoms: CB   and  CG  
ROOT
ATOM     16  CA  ASN A 133      31.225  30.257  11.749  1.00 18.15     0.196 C 
ENDROOT
BRANCH  16  17
ATOM     17  CB  ASN A 133      30.092  31.240  11.460  1.00 18.27     0.126 C 
BRANCH  17  18
ATOM     18  CG  ASN A 133      28.751  30.583  11.355  1.00 18.94     0.276 C 
ATOM     19  OD1 ASN A 133      28.574  29.605  10.626  1.00 18.09    -0.269 OA
ATOM     20  ND2 ASN A 133      27.779  31.121  12.091  1.00 18.93    -0.107 N 
ENDBRANCH  17  18
ENDBRANCH  16  17
END_RES ASN A 133
