REMARK VINA RESULT:    -4.613      1.811      4.231
REMARK INTER + INTRA:          -8.398
REMARK INTER:                  -5.169
REMARK INTRA:                  -3.229
REMARK UNBOUND:                -3.245
REMARK SMILES Cc1cn(CC2=CC[C@H]3C[C@@H]2C3(C)C)nn1
REMARK SMILES IDX 5 1 4 2 1 3 2 4 3 5 16 6 15 7 6 8 7 9 11 10 8 11 10 12 12 13
REMARK SMILES IDX 9 14 13 15 14 16
REMARK H PARENT
REMARK Flexibility Score: inf
ROOT
ATOM      1  C   UNL     1      35.539  34.189  12.990  1.00  0.00     0.177 C 
ENDROOT
BRANCH   1   2
ATOM      2  N   UNL     1      36.941  34.478  13.185  1.00  0.00    -0.248 N 
ATOM      3  C   UNL     1      40.291  35.612  12.215  1.00  0.00     0.070 C 
ATOM      4  C   UNL     1      39.052  35.106  12.853  1.00  0.00     0.080 A 
ATOM      5  C   UNL     1      37.787  34.973  12.266  1.00  0.00     0.134 A 
ATOM      6  N   UNL     1      38.880  34.673  14.117  1.00  0.00    -0.136 NA
ATOM      7  N   UNL     1      37.620  34.301  14.303  1.00  0.00    -0.067 NA
ENDBRANCH   1   2
BRANCH   1   8
ATOM      8  C   UNL     1      34.678  35.263  13.516  1.00  0.00    -0.049 C 
ATOM      9  C   UNL     1      34.117  35.250  14.713  1.00  0.00    -0.025 C 
ATOM     10  C   UNL     1      34.411  36.444  12.660  1.00  0.00     0.023 C 
ATOM     11  C   UNL     1      33.184  36.371  15.104  1.00  0.00     0.031 C 
ATOM     12  C   UNL     1      34.658  37.651  13.584  1.00  0.00     0.013 C 
ATOM     13  C   UNL     1      32.952  36.844  12.698  1.00  0.00    -0.026 C 
ATOM     14  C   UNL     1      33.212  37.437  14.052  1.00  0.00    -0.000 C 
ATOM     15  C   UNL     1      31.964  35.733  12.623  1.00  0.00     0.012 C 
ATOM     16  C   UNL     1      32.688  37.859  11.599  1.00  0.00     0.012 C 
ENDBRANCH   1   8
TORSDOF 2
BEGIN_RES LYS A 135
REMARK  4 active torsions:
REMARK  status: ('A' for Active; 'I' for Inactive)
REMARK    1  A    between atoms: CA   and  CB  
REMARK    2  A    between atoms: CB   and  CG  
REMARK    3  A    between atoms: CG   and  CD  
REMARK    4  A    between atoms: CD   and  CE  
ROOT
ATOM      1  CA  LYS A 135      33.193  34.663   9.290  1.00 25.02     0.186 C 
ENDROOT
BRANCH   1   2
ATOM      2  CB  LYS A 135      32.060  35.360  10.034  1.00 26.63     0.034 C 
BRANCH   2   3
ATOM      3  CG  LYS A 135      30.834  35.587   9.188  1.00 29.45     0.005 C 
BRANCH   3   4
ATOM      4  CD  LYS A 135      30.099  34.277   8.947  1.00 32.00     0.041 C 
BRANCH   4   5
ATOM      5  CE  LYS A 135      28.760  34.533   8.281  1.00 34.25     0.338 C 
ATOM      6  NZ  LYS A 135      28.911  35.423   7.097  1.00 35.99     0.618 N 
ENDBRANCH   4   5
ENDBRANCH   3   4
ENDBRANCH   2   3
ENDBRANCH   1   2
END_RES LYS A 135
BEGIN_RES TYR A 136
REMARK  2 active torsions:
REMARK  status: ('A' for Active; 'I' for Inactive)
REMARK    5  A    between atoms: CA   and  CB  
REMARK    6  A    between atoms: CB   and  CG  
ROOT
ATOM      7  CA  TYR A 136      36.583  36.399   8.994  1.00 26.14     0.191 C 
ENDROOT
BRANCH   7   8
ATOM      8  CB  TYR A 136      37.367  36.835  10.240  1.00 28.16     0.060 C 
BRANCH   8   9
ATOM      9  CG  TYR A 136      36.967  38.206  10.727  1.00 31.88    -0.020 A 
ATOM     10  CD2 TYR A 136      35.925  38.913  10.122  1.00 32.67    -0.002 A 
ATOM     11  CE2 TYR A 136      35.563  40.187  10.581  1.00 33.89     0.027 A 
ATOM     12  CZ  TYR A 136      36.249  40.758  11.655  1.00 34.34     0.131 A 
ATOM     13  OH  TYR A 136      35.902  42.015  12.130  1.00 35.14    -0.190 OA
ATOM     14  CE1 TYR A 136      37.287  40.071  12.267  1.00 35.01     0.027 A 
ATOM     15  CD1 TYR A 136      37.643  38.806  11.797  1.00 33.57    -0.002 A 
ENDBRANCH   8   9
ENDBRANCH   7   8
END_RES TYR A 136
BEGIN_RES ASN A 133
REMARK  2 active torsions:
REMARK  status: ('A' for Active; 'I' for Inactive)
REMARK    7  A    between atoms: CA   and  CB  
REMARK    8  A    between atoms: CB   and  CG  
ROOT
ATOM     16  CA  ASN A 133      31.225  30.257  11.749  1.00 18.15     0.196 C 
ENDROOT
BRANCH  16  17
ATOM     17  CB  ASN A 133      30.092  31.240  11.460  1.00 18.27     0.126 C 
BRANCH  17  18
ATOM     18  CG  ASN A 133      28.749  30.585  11.370  1.00 18.94     0.276 C 
ATOM     19  OD1 ASN A 133      28.562  29.610  10.640  1.00 18.09    -0.269 OA
ATOM     20  ND2 ASN A 133      27.787  31.122  12.121  1.00 18.93    -0.107 N 
ENDBRANCH  17  18
ENDBRANCH  16  17
END_RES ASN A 133
