REMARK VINA RESULT:    -4.609      3.317      4.445
REMARK INTER + INTRA:          -8.044
REMARK INTER:                  -5.104
REMARK INTRA:                  -2.940
REMARK UNBOUND:                -3.166
REMARK SMILES Cc1cn(-c2cnc3ccccc3c2)nn1
REMARK SMILES IDX 5 1 6 2 7 3 8 4 9 5 10 6 11 7 12 8 13 9 14 10 4 11 1 12 2 13
REMARK SMILES IDX 3 14 16 15 15 16
REMARK H PARENT
REMARK Flexibility Score: inf
ROOT
ATOM      1  C   UNL     1      35.321  36.233  13.838  1.00  0.00     0.085 A 
ATOM      2  C   UNL     1      35.227  37.177  14.820  1.00  0.00     0.140 A 
ATOM      3  N   UNL     1      34.284  38.138  14.752  1.00  0.00    -0.254 NA
ATOM      4  C   UNL     1      33.406  38.207  13.729  1.00  0.00     0.070 A 
ATOM      5  C   UNL     1      32.438  39.187  13.653  1.00  0.00     0.029 A 
ATOM      6  C   UNL     1      31.557  39.222  12.586  1.00  0.00     0.002 A 
ATOM      7  C   UNL     1      31.635  38.266  11.572  1.00  0.00     0.001 A 
ATOM      8  C   UNL     1      32.590  37.300  11.649  1.00  0.00     0.010 A 
ATOM      9  C   UNL     1      33.462  37.274  12.714  1.00  0.00     0.002 A 
ATOM     10  C   UNL     1      34.425  36.298  12.790  1.00  0.00     0.040 A 
ENDROOT
BRANCH   1  11
ATOM     11  N   UNL     1      36.312  35.186  13.866  1.00  0.00    -0.219 N 
ATOM     12  C   UNL     1      38.184  32.368  12.457  1.00  0.00     0.070 C 
ATOM     13  C   UNL     1      37.585  33.470  13.257  1.00  0.00     0.080 A 
ATOM     14  C   UNL     1      36.569  34.332  12.859  1.00  0.00     0.140 A 
ATOM     15  N   UNL     1      37.891  33.863  14.508  1.00  0.00    -0.135 NA
ATOM     16  N   UNL     1      37.127  34.884  14.861  1.00  0.00    -0.062 NA
ENDBRANCH   1  11
TORSDOF 1
BEGIN_RES LYS A 135
REMARK  4 active torsions:
REMARK  status: ('A' for Active; 'I' for Inactive)
REMARK    1  A    between atoms: CA   and  CB  
REMARK    2  A    between atoms: CB   and  CG  
REMARK    3  A    between atoms: CG   and  CD  
REMARK    4  A    between atoms: CD   and  CE  
ROOT
ATOM      1  CA  LYS A 135      33.193  34.663   9.290  1.00 25.02     0.186 C 
ENDROOT
BRANCH   1   2
ATOM      2  CB  LYS A 135      32.060  35.360  10.034  1.00 26.63     0.034 C 
BRANCH   2   3
ATOM      3  CG  LYS A 135      30.726  34.676   9.878  1.00 29.45     0.005 C 
BRANCH   3   4
ATOM      4  CD  LYS A 135      30.221  34.806   8.449  1.00 32.00     0.041 C 
BRANCH   4   5
ATOM      5  CE  LYS A 135      28.748  34.453   8.371  1.00 34.25     0.338 C 
ATOM      6  NZ  LYS A 135      28.235  33.996   9.692  1.00 35.99     0.618 N 
ENDBRANCH   4   5
ENDBRANCH   3   4
ENDBRANCH   2   3
ENDBRANCH   1   2
END_RES LYS A 135
BEGIN_RES TYR A 136
REMARK  2 active torsions:
REMARK  status: ('A' for Active; 'I' for Inactive)
REMARK    5  A    between atoms: CA   and  CB  
REMARK    6  A    between atoms: CB   and  CG  
ROOT
ATOM      7  CA  TYR A 136      36.583  36.399   8.994  1.00 26.14     0.191 C 
ENDROOT
BRANCH   7   8
ATOM      8  CB  TYR A 136      37.367  36.835  10.240  1.00 28.16     0.060 C 
BRANCH   8   9
ATOM      9  CG  TYR A 136      36.815  38.094  10.862  1.00 31.88    -0.020 A 
ATOM     10  CD2 TYR A 136      35.772  38.801  10.259  1.00 32.67    -0.002 A 
ATOM     11  CE2 TYR A 136      35.268  39.971  10.844  1.00 33.89     0.027 A 
ATOM     12  CZ  TYR A 136      35.812  40.438  12.042  1.00 34.34     0.131 A 
ATOM     13  OH  TYR A 136      35.324  41.590  12.643  1.00 35.14    -0.190 OA
ATOM     14  CE1 TYR A 136      36.850  39.749  12.654  1.00 35.01     0.027 A 
ATOM     15  CD1 TYR A 136      37.348  38.589  12.059  1.00 33.57    -0.002 A 
ENDBRANCH   8   9
ENDBRANCH   7   8
END_RES TYR A 136
BEGIN_RES ASN A 133
REMARK  2 active torsions:
REMARK  status: ('A' for Active; 'I' for Inactive)
REMARK    7  A    between atoms: CA   and  CB  
REMARK    8  A    between atoms: CB   and  CG  
ROOT
ATOM     16  CA  ASN A 133      31.225  30.257  11.749  1.00 18.15     0.196 C 
ENDROOT
BRANCH  16  17
ATOM     17  CB  ASN A 133      30.092  31.240  11.460  1.00 18.27     0.126 C 
BRANCH  17  18
ATOM     18  CG  ASN A 133      28.754  30.580  11.333  1.00 18.94     0.276 C 
ATOM     19  OD1 ASN A 133      28.586  29.617  10.582  1.00 18.09    -0.269 OA
ATOM     20  ND2 ASN A 133      27.776  31.098  12.075  1.00 18.93    -0.107 N 
ENDBRANCH  17  18
ENDBRANCH  16  17
END_RES ASN A 133
