REMARK VINA RESULT:    -3.711      4.463      8.208
REMARK INTER + INTRA:          -7.205
REMARK INTER:                  -5.205
REMARK INTRA:                  -2.001
REMARK UNBOUND:                -3.060
REMARK SMILES Cc1cn(Cc2ccccc2)nn1
REMARK SMILES IDX 5 1 4 2 1 3 2 4 3 5 13 6 12 7 6 8 7 9 11 10 8 11 10 12 9 13
REMARK H PARENT
REMARK Flexibility Score: inf
ROOT
ATOM      1  C   UNL     1      26.205  35.075   9.081  1.00  0.00     0.181 C 
ENDROOT
BRANCH   1   2
ATOM      2  N   UNL     1      27.092  35.167  10.228  1.00  0.00    -0.248 N 
ATOM      3  C   UNL     1      29.372  34.027  12.797  1.00  0.00     0.070 C 
ATOM      4  C   UNL     1      28.467  34.742  11.850  1.00  0.00     0.080 A 
ATOM      5  C   UNL     1      27.764  34.175  10.805  1.00  0.00     0.134 A 
ATOM      6  N   UNL     1      28.188  36.057  11.858  1.00  0.00    -0.136 NA
ATOM      7  N   UNL     1      27.353  36.288  10.865  1.00  0.00    -0.067 NA
ENDBRANCH   1   2
BRANCH   1   8
ATOM      8  C   UNL     1      26.871  35.753   7.928  1.00  0.00    -0.026 A 
ATOM      9  C   UNL     1      26.495  37.027   7.544  1.00  0.00     0.005 A 
ATOM     10  C   UNL     1      27.879  35.149   7.202  1.00  0.00     0.005 A 
ATOM     11  C   UNL     1      27.110  37.653   6.480  1.00  0.00     0.000 A 
ATOM     12  C   UNL     1      28.498  35.772   6.137  1.00  0.00     0.000 A 
ATOM     13  C   UNL     1      28.121  37.042   5.755  1.00  0.00     0.000 A 
ENDBRANCH   1   8
TORSDOF 2
BEGIN_RES LYS A 135
REMARK  4 active torsions:
REMARK  status: ('A' for Active; 'I' for Inactive)
REMARK    1  A    between atoms: CA   and  CB  
REMARK    2  A    between atoms: CB   and  CG  
REMARK    3  A    between atoms: CG   and  CD  
REMARK    4  A    between atoms: CD   and  CE  
ROOT
ATOM      1  CA  LYS A 135      33.193  34.663   9.290  1.00 25.02     0.186 C 
ENDROOT
BRANCH   1   2
ATOM      2  CB  LYS A 135      32.060  35.360  10.034  1.00 26.63     0.034 C 
BRANCH   2   3
ATOM      3  CG  LYS A 135      30.816  35.543   9.203  1.00 29.45     0.005 C 
BRANCH   3   4
ATOM      4  CD  LYS A 135      30.471  37.018   9.071  1.00 32.00     0.041 C 
BRANCH   4   5
ATOM      5  CE  LYS A 135      31.168  37.827  10.149  1.00 34.25     0.338 C 
ATOM      6  NZ  LYS A 135      31.919  38.970   9.560  1.00 35.99     0.618 N 
ENDBRANCH   4   5
ENDBRANCH   3   4
ENDBRANCH   2   3
ENDBRANCH   1   2
END_RES LYS A 135
BEGIN_RES TYR A 136
REMARK  2 active torsions:
REMARK  status: ('A' for Active; 'I' for Inactive)
REMARK    5  A    between atoms: CA   and  CB  
REMARK    6  A    between atoms: CB   and  CG  
ROOT
ATOM      7  CA  TYR A 136      36.583  36.399   8.994  1.00 26.14     0.191 C 
ENDROOT
BRANCH   7   8
ATOM      8  CB  TYR A 136      37.367  36.835  10.240  1.00 28.16     0.060 C 
BRANCH   8   9
ATOM      9  CG  TYR A 136      37.201  38.303  10.546  1.00 31.88    -0.020 A 
ATOM     10  CD2 TYR A 136      37.753  38.869  11.697  1.00 32.67    -0.002 A 
ATOM     11  CE2 TYR A 136      37.591  40.234  11.973  1.00 33.89     0.027 A 
ATOM     12  CZ  TYR A 136      36.870  41.040  11.088  1.00 34.34     0.131 A 
ATOM     13  OH  TYR A 136      36.704  42.395  11.337  1.00 35.14    -0.190 OA
ATOM     14  CE1 TYR A 136      36.315  40.494   9.940  1.00 35.01     0.027 A 
ATOM     15  CD1 TYR A 136      36.477  39.132   9.679  1.00 33.57    -0.002 A 
ENDBRANCH   8   9
ENDBRANCH   7   8
END_RES TYR A 136
BEGIN_RES ASN A 133
REMARK  2 active torsions:
REMARK  status: ('A' for Active; 'I' for Inactive)
REMARK    7  A    between atoms: CA   and  CB  
REMARK    8  A    between atoms: CB   and  CG  
ROOT
ATOM     16  CA  ASN A 133      31.225  30.257  11.749  1.00 18.15     0.196 C 
ENDROOT
BRANCH  16  17
ATOM     17  CB  ASN A 133      30.092  31.240  11.460  1.00 18.27     0.126 C 
BRANCH  17  18
ATOM     18  CG  ASN A 133      28.748  30.585  11.372  1.00 18.94     0.276 C 
ATOM     19  OD1 ASN A 133      27.819  30.934  12.103  1.00 18.09    -0.269 OA
ATOM     20  ND2 ASN A 133      28.631  29.615  10.466  1.00 18.93    -0.107 N 
ENDBRANCH  17  18
ENDBRANCH  16  17
END_RES ASN A 133
