REMARK VINA RESULT:    -4.770      0.000      0.000
REMARK INTER + INTRA:          -8.571
REMARK INTER:                  -5.383
REMARK INTRA:                  -3.189
REMARK UNBOUND:                -2.965
REMARK SMILES COc1ccc(Cn2cc(C)nn2)cc1
REMARK SMILES IDX 6 1 5 2 4 3 3 4 15 5 14 6 7 7 8 8 11 9 10 10 9 11 12 12
REMARK SMILES IDX 13 13 2 14 1 15
REMARK H PARENT
REMARK Flexibility Score: inf
ROOT
ATOM      1  C   UNL     1      34.703  35.391  14.331  1.00  0.00    -0.026 A 
ATOM      2  C   UNL     1      34.978  34.648  13.191  1.00  0.00     0.009 A 
ATOM      3  C   UNL     1      36.285  34.228  12.942  1.00  0.00     0.047 A 
ATOM      4  C   UNL     1      37.275  34.564  13.841  1.00  0.00     0.118 A 
ATOM      5  C   UNL     1      36.962  35.304  14.961  1.00  0.00     0.047 A 
ATOM      6  C   UNL     1      35.678  35.733  15.233  1.00  0.00     0.009 A 
ENDROOT
BRANCH   1   7
ATOM      7  C   UNL     1      33.303  35.823  14.567  1.00  0.00     0.181 C 
BRANCH   7   8
ATOM      8  N   UNL     1      32.608  34.871  15.449  1.00  0.00    -0.248 N 
ATOM      9  C   UNL     1      30.739  31.847  16.300  1.00  0.00     0.070 C 
ATOM     10  C   UNL     1      31.491  33.144  16.218  1.00  0.00     0.080 A 
ATOM     11  C   UNL     1      32.018  33.722  15.088  1.00  0.00     0.134 A 
ATOM     12  N   UNL     1      31.776  33.962  17.241  1.00  0.00    -0.136 NA
ATOM     13  N   UNL     1      32.435  34.972  16.754  1.00  0.00    -0.067 NA
ENDBRANCH   7   8
ENDBRANCH   1   7
BRANCH   4  14
ATOM     14  O   UNL     1      38.559  34.126  13.554  1.00  0.00    -0.497 OA
ATOM     15  C   UNL     1      39.303  34.859  12.599  1.00  0.00     0.278 C 
ENDBRANCH   4  14
TORSDOF 3
BEGIN_RES LYS A 135
REMARK  4 active torsions:
REMARK  status: ('A' for Active; 'I' for Inactive)
REMARK    1  A    between atoms: CA   and  CB  
REMARK    2  A    between atoms: CB   and  CG  
REMARK    3  A    between atoms: CG   and  CD  
REMARK    4  A    between atoms: CD   and  CE  
ROOT
ATOM      1  CA  LYS A 135      33.193  34.663   9.290  1.00 25.02     0.186 C 
ENDROOT
BRANCH   1   2
ATOM      2  CB  LYS A 135      32.060  35.360  10.034  1.00 26.63     0.034 C 
BRANCH   2   3
ATOM      3  CG  LYS A 135      30.732  34.660   9.902  1.00 29.45     0.005 C 
BRANCH   3   4
ATOM      4  CD  LYS A 135      30.324  34.554   8.441  1.00 32.00     0.041 C 
BRANCH   4   5
ATOM      5  CE  LYS A 135      28.813  34.525   8.311  1.00 34.25     0.338 C 
ATOM      6  NZ  LYS A 135      28.189  33.820   9.465  1.00 35.99     0.618 N 
ENDBRANCH   4   5
ENDBRANCH   3   4
ENDBRANCH   2   3
ENDBRANCH   1   2
END_RES LYS A 135
BEGIN_RES TYR A 136
REMARK  2 active torsions:
REMARK  status: ('A' for Active; 'I' for Inactive)
REMARK    5  A    between atoms: CA   and  CB  
REMARK    6  A    between atoms: CB   and  CG  
ROOT
ATOM      7  CA  TYR A 136      36.583  36.399   8.994  1.00 26.14     0.191 C 
ENDROOT
BRANCH   7   8
ATOM      8  CB  TYR A 136      37.367  36.835  10.240  1.00 28.16     0.060 C 
BRANCH   8   9
ATOM      9  CG  TYR A 136      36.696  37.965  10.982  1.00 31.88    -0.020 A 
ATOM     10  CD2 TYR A 136      36.617  37.968  12.376  1.00 32.67    -0.002 A 
ATOM     11  CE2 TYR A 136      35.990  39.022  13.055  1.00 33.89     0.027 A 
ATOM     12  CZ  TYR A 136      35.437  40.082  12.332  1.00 34.34     0.131 A 
ATOM     13  OH  TYR A 136      34.818  41.140  12.984  1.00 35.14    -0.190 OA
ATOM     14  CE1 TYR A 136      35.506  40.094  10.947  1.00 35.01     0.027 A 
ATOM     15  CD1 TYR A 136      36.127  39.036  10.281  1.00 33.57    -0.002 A 
ENDBRANCH   8   9
ENDBRANCH   7   8
END_RES TYR A 136
BEGIN_RES ASN A 133
REMARK  2 active torsions:
REMARK  status: ('A' for Active; 'I' for Inactive)
REMARK    7  A    between atoms: CA   and  CB  
REMARK    8  A    between atoms: CB   and  CG  
ROOT
ATOM     16  CA  ASN A 133      31.225  30.257  11.749  1.00 18.15     0.196 C 
ENDROOT
BRANCH  16  17
ATOM     17  CB  ASN A 133      30.092  31.240  11.460  1.00 18.27     0.126 C 
BRANCH  17  18
ATOM     18  CG  ASN A 133      28.752  30.582  11.348  1.00 18.94     0.276 C 
ATOM     19  OD1 ASN A 133      28.583  29.597  10.627  1.00 18.09    -0.269 OA
ATOM     20  ND2 ASN A 133      27.772  31.127  12.068  1.00 18.93    -0.107 N 
ENDBRANCH  17  18
ENDBRANCH  16  17
END_RES ASN A 133
