REMARK VINA RESULT:    -3.837      8.589     14.276
REMARK INTER + INTRA:          -7.313
REMARK INTER:                  -4.391
REMARK INTRA:                  -2.921
REMARK UNBOUND:                -3.251
REMARK SMILES Cc1cn([C@H]2C[C@H]3CC[C@@H](C2)N3C)nn1
REMARK SMILES IDX 5 1 11 2 10 3 12 4 13 5 7 6 6 7 8 8 9 9 4 10 1 11 2 12 3 13
REMARK SMILES IDX 15 14 14 15
REMARK H PARENT
REMARK Flexibility Score: inf
ROOT
ATOM      1  C   UNL     1      34.431  34.962  13.688  1.00  0.00     0.112 C 
ATOM      2  C   UNL     1      33.898  35.839  12.572  1.00  0.00     0.046 C 
ATOM      3  C   UNL     1      32.652  36.569  12.995  1.00  0.00     0.058 C 
ATOM      4  N   UNL     1      32.037  35.765  14.058  1.00  0.00    -0.300 NA
ATOM      5  C   UNL     1      30.672  36.206  14.169  1.00  0.00     0.105 C 
ATOM      6  C   UNL     1      32.833  36.146  15.210  1.00  0.00     0.058 C 
ATOM      7  C   UNL     1      34.258  35.710  14.981  1.00  0.00     0.046 C 
ATOM      8  C   UNL     1      32.824  37.668  15.132  1.00  0.00     0.021 C 
ATOM      9  C   UNL     1      32.919  37.889  13.641  1.00  0.00     0.021 C 
ENDROOT
BRANCH   1  10
ATOM     10  N   UNL     1      35.839  34.698  13.497  1.00  0.00    -0.249 N 
ATOM     11  C   UNL     1      39.381  34.729  14.367  1.00  0.00     0.070 C 
ATOM     12  C   UNL     1      38.045  34.568  13.750  1.00  0.00     0.080 A 
ATOM     13  C   UNL     1      36.852  35.001  14.318  1.00  0.00     0.134 A 
ATOM     14  N   UNL     1      37.697  34.011  12.587  1.00  0.00    -0.136 NA
ATOM     15  N   UNL     1      36.386  34.095  12.450  1.00  0.00    -0.067 NA
ENDBRANCH   1  10
TORSDOF 1
BEGIN_RES LYS A 135
REMARK  4 active torsions:
REMARK  status: ('A' for Active; 'I' for Inactive)
REMARK    1  A    between atoms: CA   and  CB  
REMARK    2  A    between atoms: CB   and  CG  
REMARK    3  A    between atoms: CG   and  CD  
REMARK    4  A    between atoms: CD   and  CE  
ROOT
ATOM      1  CA  LYS A 135      33.193  34.663   9.290  1.00 25.02     0.186 C 
ENDROOT
BRANCH   1   2
ATOM      2  CB  LYS A 135      32.060  35.360  10.034  1.00 26.63     0.034 C 
BRANCH   2   3
ATOM      3  CG  LYS A 135      30.717  34.707   9.834  1.00 29.45     0.005 C 
BRANCH   3   4
ATOM      4  CD  LYS A 135      30.364  34.647   8.356  1.00 32.00     0.041 C 
BRANCH   4   5
ATOM      5  CE  LYS A 135      29.461  35.805   7.976  1.00 34.25     0.338 C 
ATOM      6  NZ  LYS A 135      28.504  35.411   6.905  1.00 35.99     0.618 N 
ENDBRANCH   4   5
ENDBRANCH   3   4
ENDBRANCH   2   3
ENDBRANCH   1   2
END_RES LYS A 135
BEGIN_RES TYR A 136
REMARK  2 active torsions:
REMARK  status: ('A' for Active; 'I' for Inactive)
REMARK    5  A    between atoms: CA   and  CB  
REMARK    6  A    between atoms: CB   and  CG  
ROOT
ATOM      7  CA  TYR A 136      36.583  36.399   8.994  1.00 26.14     0.191 C 
ENDROOT
BRANCH   7   8
ATOM      8  CB  TYR A 136      37.367  36.835  10.240  1.00 28.16     0.060 C 
BRANCH   8   9
ATOM      9  CG  TYR A 136      36.715  37.989  10.961  1.00 31.88    -0.020 A 
ATOM     10  CD2 TYR A 136      35.938  38.925  10.275  1.00 32.67    -0.002 A 
ATOM     11  CE2 TYR A 136      35.338  39.994  10.954  1.00 33.89     0.027 A 
ATOM     12  CZ  TYR A 136      35.518  40.128  12.333  1.00 34.34     0.131 A 
ATOM     13  OH  TYR A 136      34.928  41.175  13.027  1.00 35.14    -0.190 OA
ATOM     14  CE1 TYR A 136      36.288  39.209  13.030  1.00 35.01     0.027 A 
ATOM     15  CD1 TYR A 136      36.885  38.152  12.342  1.00 33.57    -0.002 A 
ENDBRANCH   8   9
ENDBRANCH   7   8
END_RES TYR A 136
BEGIN_RES ASN A 133
REMARK  2 active torsions:
REMARK  status: ('A' for Active; 'I' for Inactive)
REMARK    7  A    between atoms: CA   and  CB  
REMARK    8  A    between atoms: CB   and  CG  
ROOT
ATOM     16  CA  ASN A 133      31.225  30.257  11.749  1.00 18.15     0.196 C 
ENDROOT
BRANCH  16  17
ATOM     17  CB  ASN A 133      30.092  31.240  11.460  1.00 18.27     0.126 C 
BRANCH  17  18
ATOM     18  CG  ASN A 133      28.748  30.585  11.373  1.00 18.94     0.276 C 
ATOM     19  OD1 ASN A 133      28.564  29.598  10.659  1.00 18.09    -0.269 OA
ATOM     20  ND2 ASN A 133      27.783  31.136  12.108  1.00 18.93    -0.107 N 
ENDBRANCH  17  18
ENDBRANCH  16  17
END_RES ASN A 133
