REMARK VINA RESULT:    -5.257      1.859      4.519
REMARK INTER + INTRA:          -8.616
REMARK INTER:                  -6.068
REMARK INTRA:                  -2.547
REMARK UNBOUND:                -3.051
REMARK SMILES Cc1cn(-c2c3ccccc3nc3ccccc23)nn1
REMARK SMILES IDX 5 1 6 2 7 3 8 4 9 5 10 6 11 7 12 8 13 9 14 10 15 11 16 12
REMARK SMILES IDX 17 13 18 14 4 15 1 16 2 17 3 18 20 19 19 20
REMARK H PARENT
REMARK Flexibility Score: inf
ROOT
ATOM      1  C   UNL     1      36.170  35.779  15.066  1.00  0.00     0.085 A 
ATOM      2  C   UNL     1      34.947  36.354  14.766  1.00  0.00     0.027 A 
ATOM      3  C   UNL     1      34.383  37.286  15.611  1.00  0.00     0.012 A 
ATOM      4  C   UNL     1      33.164  37.842  15.288  1.00  0.00     0.001 A 
ATOM      5  C   UNL     1      32.555  37.437  14.121  1.00  0.00     0.002 A 
ATOM      6  C   UNL     1      33.120  36.512  13.285  1.00  0.00     0.029 A 
ATOM      7  C   UNL     1      34.353  35.937  13.593  1.00  0.00     0.073 A 
ATOM      8  N   UNL     1      34.887  35.031  12.761  1.00  0.00    -0.248 NA
ATOM      9  C   UNL     1      36.094  34.460  13.051  1.00  0.00     0.073 A 
ATOM     10  C   UNL     1      36.653  33.528  12.198  1.00  0.00     0.029 A 
ATOM     11  C   UNL     1      37.872  32.988  12.547  1.00  0.00     0.002 A 
ATOM     12  C   UNL     1      38.525  33.360  13.707  1.00  0.00     0.001 A 
ATOM     13  C   UNL     1      37.960  34.279  14.532  1.00  0.00     0.012 A 
ATOM     14  C   UNL     1      36.743  34.831  14.205  1.00  0.00     0.027 A 
ENDROOT
BRANCH   1  15
ATOM     15  N   UNL     1      36.865  36.140  16.250  1.00  0.00    -0.219 N 
ATOM     16  C   UNL     1      39.202  38.089  18.299  1.00  0.00     0.070 C 
ATOM     17  C   UNL     1      38.197  37.144  17.694  1.00  0.00     0.080 A 
ATOM     18  C   UNL     1      37.756  37.128  16.390  1.00  0.00     0.140 A 
ATOM     19  N   UNL     1      37.559  36.151  18.327  1.00  0.00    -0.135 NA
ATOM     20  N   UNL     1      36.779  35.582  17.433  1.00  0.00    -0.062 NA
ENDBRANCH   1  15
TORSDOF 1
BEGIN_RES LYS A 135
REMARK  4 active torsions:
REMARK  status: ('A' for Active; 'I' for Inactive)
REMARK    1  A    between atoms: CA   and  CB  
REMARK    2  A    between atoms: CB   and  CG  
REMARK    3  A    between atoms: CG   and  CD  
REMARK    4  A    between atoms: CD   and  CE  
ROOT
ATOM      1  CA  LYS A 135      33.193  34.663   9.290  1.00 25.02     0.186 C 
ENDROOT
BRANCH   1   2
ATOM      2  CB  LYS A 135      32.060  35.360  10.034  1.00 26.63     0.034 C 
BRANCH   2   3
ATOM      3  CG  LYS A 135      30.704  34.762   9.763  1.00 29.45     0.005 C 
BRANCH   3   4
ATOM      4  CD  LYS A 135      30.507  34.532   8.272  1.00 32.00     0.041 C 
BRANCH   4   5
ATOM      5  CE  LYS A 135      29.105  34.932   7.852  1.00 34.25     0.338 C 
ATOM      6  NZ  LYS A 135      28.082  34.317   8.743  1.00 35.99     0.618 N 
ENDBRANCH   4   5
ENDBRANCH   3   4
ENDBRANCH   2   3
ENDBRANCH   1   2
END_RES LYS A 135
BEGIN_RES TYR A 136
REMARK  2 active torsions:
REMARK  status: ('A' for Active; 'I' for Inactive)
REMARK    5  A    between atoms: CA   and  CB  
REMARK    6  A    between atoms: CB   and  CG  
ROOT
ATOM      7  CA  TYR A 136      36.583  36.399   8.994  1.00 26.14     0.191 C 
ENDROOT
BRANCH   7   8
ATOM      8  CB  TYR A 136      37.367  36.835  10.240  1.00 28.16     0.060 C 
BRANCH   8   9
ATOM      9  CG  TYR A 136      36.611  37.833  11.081  1.00 31.88    -0.020 A 
ATOM     10  CD2 TYR A 136      35.430  38.420  10.621  1.00 32.67    -0.002 A 
ATOM     11  CE2 TYR A 136      34.736  39.348  11.410  1.00 33.89     0.027 A 
ATOM     12  CZ  TYR A 136      35.228  39.692  12.671  1.00 34.34     0.131 A 
ATOM     13  OH  TYR A 136      34.554  40.603  13.472  1.00 35.14    -0.190 OA
ATOM     14  CE1 TYR A 136      36.400  39.119  13.144  1.00 35.01     0.027 A 
ATOM     15  CD1 TYR A 136      37.086  38.202  12.347  1.00 33.57    -0.002 A 
ENDBRANCH   8   9
ENDBRANCH   7   8
END_RES TYR A 136
BEGIN_RES ASN A 133
REMARK  2 active torsions:
REMARK  status: ('A' for Active; 'I' for Inactive)
REMARK    7  A    between atoms: CA   and  CB  
REMARK    8  A    between atoms: CB   and  CG  
ROOT
ATOM     16  CA  ASN A 133      31.225  30.257  11.749  1.00 18.15     0.196 C 
ENDROOT
BRANCH  16  17
ATOM     17  CB  ASN A 133      30.092  31.240  11.460  1.00 18.27     0.126 C 
BRANCH  17  18
ATOM     18  CG  ASN A 133      28.747  30.586  11.382  1.00 18.94     0.276 C 
ATOM     19  OD1 ASN A 133      28.561  29.591  10.679  1.00 18.09    -0.269 OA
ATOM     20  ND2 ASN A 133      27.783  31.147  12.111  1.00 18.93    -0.107 N 
ENDBRANCH  17  18
ENDBRANCH  16  17
END_RES ASN A 133
