REMARK VINA RESULT:    -2.825      6.264      7.596
REMARK INTER + INTRA:          -6.140
REMARK INTER:                  -2.993
REMARK INTRA:                  -3.147
REMARK UNBOUND:                -3.149
REMARK SMILES Cc1cn(-c2ccncc2)nn1
REMARK SMILES IDX 1 1 2 2 3 3 4 4 11 5 12 6 5 7 6 8 10 9 7 10 9 11 8 12
REMARK H PARENT
REMARK Flexibility Score: inf
ROOT
ATOM      1  C   UNL     1      28.672  37.304  11.673  1.00  0.00     0.070 C 
ATOM      2  C   UNL     1      27.722  37.331  10.545  1.00  0.00     0.080 A 
ATOM      3  C   UNL     1      26.394  36.924  10.525  1.00  0.00     0.140 A 
ATOM      4  N   UNL     1      25.897  37.121   9.295  1.00  0.00    -0.220 N 
ATOM      5  N   UNL     1      26.876  37.634   8.568  1.00  0.00    -0.062 NA
ATOM      6  N   UNL     1      27.975  37.765   9.298  1.00  0.00    -0.135 NA
ENDROOT
BRANCH   4   7
ATOM      7  C   UNL     1      24.568  36.830   8.875  1.00  0.00     0.069 A 
ATOM      8  C   UNL     1      23.966  37.584   7.882  1.00  0.00     0.048 A 
ATOM      9  C   UNL     1      23.820  35.811   9.416  1.00  0.00     0.048 A 
ATOM     10  C   UNL     1      22.690  37.297   7.485  1.00  0.00     0.113 A 
ATOM     11  C   UNL     1      22.535  35.524   9.015  1.00  0.00     0.113 A 
ATOM     12  N   UNL     1      22.010  36.292   8.047  1.00  0.00    -0.265 NA
ENDBRANCH   4   7
TORSDOF 1
BEGIN_RES LYS A 135
REMARK  4 active torsions:
REMARK  status: ('A' for Active; 'I' for Inactive)
REMARK    1  A    between atoms: CA   and  CB  
REMARK    2  A    between atoms: CB   and  CG  
REMARK    3  A    between atoms: CG   and  CD  
REMARK    4  A    between atoms: CD   and  CE  
ROOT
ATOM      1  CA  LYS A 135      33.193  34.663   9.290  1.00 25.02     0.186 C 
ENDROOT
BRANCH   1   2
ATOM      2  CB  LYS A 135      32.060  35.360  10.034  1.00 26.63     0.034 C 
BRANCH   2   3
ATOM      3  CG  LYS A 135      30.801  35.502   9.218  1.00 29.45     0.005 C 
BRANCH   3   4
ATOM      4  CD  LYS A 135      30.137  34.148   9.017  1.00 32.00     0.041 C 
BRANCH   4   5
ATOM      5  CE  LYS A 135      28.684  34.322   8.616  1.00 34.25     0.338 C 
ATOM      6  NZ  LYS A 135      27.773  33.709   9.622  1.00 35.99     0.618 N 
ENDBRANCH   4   5
ENDBRANCH   3   4
ENDBRANCH   2   3
ENDBRANCH   1   2
END_RES LYS A 135
BEGIN_RES TYR A 136
REMARK  2 active torsions:
REMARK  status: ('A' for Active; 'I' for Inactive)
REMARK    5  A    between atoms: CA   and  CB  
REMARK    6  A    between atoms: CB   and  CG  
ROOT
ATOM      7  CA  TYR A 136      36.583  36.399   8.994  1.00 26.14     0.191 C 
ENDROOT
BRANCH   7   8
ATOM      8  CB  TYR A 136      37.367  36.835  10.240  1.00 28.16     0.060 C 
BRANCH   8   9
ATOM      9  CG  TYR A 136      37.198  38.302  10.548  1.00 31.88    -0.020 A 
ATOM     10  CD2 TYR A 136      36.252  38.742  11.478  1.00 32.67    -0.002 A 
ATOM     11  CE2 TYR A 136      36.102  40.107  11.755  1.00 33.89     0.027 A 
ATOM     12  CZ  TYR A 136      36.904  41.042  11.096  1.00 34.34     0.131 A 
ATOM     13  OH  TYR A 136      36.777  42.398  11.361  1.00 35.14    -0.190 OA
ATOM     14  CE1 TYR A 136      37.847  40.623  10.169  1.00 35.01     0.027 A 
ATOM     15  CD1 TYR A 136      37.984  39.261   9.896  1.00 33.57    -0.002 A 
ENDBRANCH   8   9
ENDBRANCH   7   8
END_RES TYR A 136
BEGIN_RES ASN A 133
REMARK  2 active torsions:
REMARK  status: ('A' for Active; 'I' for Inactive)
REMARK    7  A    between atoms: CA   and  CB  
REMARK    8  A    between atoms: CB   and  CG  
ROOT
ATOM     16  CA  ASN A 133      31.225  30.257  11.749  1.00 18.15     0.196 C 
ENDROOT
BRANCH  16  17
ATOM     17  CB  ASN A 133      30.092  31.240  11.460  1.00 18.27     0.126 C 
BRANCH  17  18
ATOM     18  CG  ASN A 133      28.751  30.582  11.353  1.00 18.94     0.276 C 
ATOM     19  OD1 ASN A 133      28.575  29.607  10.621  1.00 18.09    -0.269 OA
ATOM     20  ND2 ASN A 133      27.779  31.118  12.091  1.00 18.93    -0.107 N 
ENDBRANCH  17  18
ENDBRANCH  16  17
END_RES ASN A 133
