REMARK VINA RESULT:    -6.321      3.901      6.589
REMARK INTER + INTRA:          -8.820
REMARK INTER:                  -5.098
REMARK INTRA:                  -3.722
REMARK UNBOUND:                -1.391
REMARK SMILES Cc1cn(C(c2ccccc2)c2ccccc2)nn1
REMARK SMILES IDX 5 1 4 2 1 3 2 4 3 5 19 6 18 7 6 8 7 9 11 10 8 11 10 12 9 13
REMARK SMILES IDX 12 14 13 15 17 16 14 17 16 18 15 19
REMARK H PARENT
REMARK Flexibility Score: inf
ROOT
ATOM      1  C   UNL     1      29.695  30.885  17.686  1.00  0.00     0.169 C 
ENDROOT
BRANCH   1   2
ATOM      2  N   UNL     1      29.655  30.817  19.146  1.00  0.00    -0.240 N 
ATOM      3  C   UNL     1      30.739  29.894  22.511  1.00  0.00     0.070 C 
ATOM      4  C   UNL     1      30.117  30.379  21.275  1.00  0.00     0.080 A 
ATOM      5  C   UNL     1      30.528  30.197  19.959  1.00  0.00     0.135 A 
ATOM      6  N   UNL     1      28.993  31.113  21.190  1.00  0.00    -0.136 NA
ATOM      7  N   UNL     1      28.737  31.362  19.922  1.00  0.00    -0.066 NA
ENDBRANCH   1   2
BRANCH   1   8
ATOM      8  C   UNL     1      30.492  32.022  17.178  1.00  0.00    -0.019 A 
ATOM      9  C   UNL     1      30.809  33.121  17.930  1.00  0.00     0.006 A 
ATOM     10  C   UNL     1      30.971  32.007  15.870  1.00  0.00     0.006 A 
ATOM     11  C   UNL     1      31.574  34.157  17.382  1.00  0.00     0.000 A 
ATOM     12  C   UNL     1      31.721  33.022  15.332  1.00  0.00     0.000 A 
ATOM     13  C   UNL     1      32.032  34.117  16.089  1.00  0.00     0.000 A 
ENDBRANCH   1   8
BRANCH   1  14
ATOM     14  C   UNL     1      28.360  30.763  17.096  1.00  0.00    -0.019 A 
ATOM     15  C   UNL     1      27.659  31.804  16.529  1.00  0.00     0.006 A 
ATOM     16  C   UNL     1      27.731  29.533  17.072  1.00  0.00     0.006 A 
ATOM     17  C   UNL     1      26.425  31.612  15.985  1.00  0.00     0.000 A 
ATOM     18  C   UNL     1      26.485  29.312  16.528  1.00  0.00     0.000 A 
ATOM     19  C   UNL     1      25.833  30.374  15.980  1.00  0.00     0.000 A 
ENDBRANCH   1  14
TORSDOF 3
BEGIN_RES LYS A 135
REMARK  4 active torsions:
REMARK  status: ('A' for Active; 'I' for Inactive)
REMARK    1  A    between atoms: CA   and  CB  
REMARK    2  A    between atoms: CB   and  CG  
REMARK    3  A    between atoms: CG   and  CD  
REMARK    4  A    between atoms: CD   and  CE  
ROOT
ATOM      1  CA  LYS A 135      33.193  34.663   9.290  1.00 25.02     0.186 C 
ENDROOT
BRANCH   1   2
ATOM      2  CB  LYS A 135      32.060  35.360  10.034  1.00 26.63     0.034 C 
BRANCH   2   3
ATOM      3  CG  LYS A 135      30.802  35.505   9.217  1.00 29.45     0.005 C 
BRANCH   3   4
ATOM      4  CD  LYS A 135      30.155  34.149   8.984  1.00 32.00     0.041 C 
BRANCH   4   5
ATOM      5  CE  LYS A 135      28.687  34.312   8.637  1.00 34.25     0.338 C 
ATOM      6  NZ  LYS A 135      27.818  33.716   9.689  1.00 35.99     0.618 N 
ENDBRANCH   4   5
ENDBRANCH   3   4
ENDBRANCH   2   3
ENDBRANCH   1   2
END_RES LYS A 135
BEGIN_RES TYR A 136
REMARK  2 active torsions:
REMARK  status: ('A' for Active; 'I' for Inactive)
REMARK    5  A    between atoms: CA   and  CB  
REMARK    6  A    between atoms: CB   and  CG  
ROOT
ATOM      7  CA  TYR A 136      36.583  36.399   8.994  1.00 26.14     0.191 C 
ENDROOT
BRANCH   7   8
ATOM      8  CB  TYR A 136      37.367  36.835  10.240  1.00 28.16     0.060 C 
BRANCH   8   9
ATOM      9  CG  TYR A 136      37.202  38.304  10.545  1.00 31.88    -0.020 A 
ATOM     10  CD2 TYR A 136      37.747  38.868  11.701  1.00 32.67    -0.002 A 
ATOM     11  CE2 TYR A 136      37.586  40.233  11.975  1.00 33.89     0.027 A 
ATOM     12  CZ  TYR A 136      36.874  41.041  11.085  1.00 34.34     0.131 A 
ATOM     13  OH  TYR A 136      36.709  42.396  11.333  1.00 35.14    -0.190 OA
ATOM     14  CE1 TYR A 136      36.326  40.497   9.933  1.00 35.01     0.027 A 
ATOM     15  CD1 TYR A 136      36.487  39.135   9.673  1.00 33.57    -0.002 A 
ENDBRANCH   8   9
ENDBRANCH   7   8
END_RES TYR A 136
BEGIN_RES ASN A 133
REMARK  2 active torsions:
REMARK  status: ('A' for Active; 'I' for Inactive)
REMARK    7  A    between atoms: CA   and  CB  
REMARK    8  A    between atoms: CB   and  CG  
ROOT
ATOM     16  CA  ASN A 133      31.225  30.257  11.749  1.00 18.15     0.196 C 
ENDROOT
BRANCH  16  17
ATOM     17  CB  ASN A 133      30.092  31.240  11.460  1.00 18.27     0.126 C 
BRANCH  17  18
ATOM     18  CG  ASN A 133      28.755  30.580  11.329  1.00 18.94     0.276 C 
ATOM     19  OD1 ASN A 133      28.582  29.635  10.557  1.00 18.09    -0.269 OA
ATOM     20  ND2 ASN A 133      27.782  31.078  12.091  1.00 18.93    -0.107 N 
ENDBRANCH  17  18
ENDBRANCH  16  17
END_RES ASN A 133
