REMARK VINA RESULT:    -3.145      4.698      6.252
REMARK INTER + INTRA:          -6.942
REMARK INTER:                  -3.471
REMARK INTRA:                  -3.471
REMARK UNBOUND:                -3.337
REMARK SMILES Cc1cn(C(C)(C)C(=O)O)nn1
REMARK SMILES IDX 5 1 6 2 7 3 4 4 1 5 2 6 3 7 12 8 11 9 8 10 9 11 10 12
REMARK H PARENT 10 13
REMARK Flexibility Score: inf
ROOT
ATOM      1  C   UNL     1      36.163  39.422   4.978  1.00  0.00     0.155 C 
ATOM      2  C   UNL     1      37.233  40.004   5.878  1.00  0.00     0.049 C 
ATOM      3  C   UNL     1      36.238  40.172   3.664  1.00  0.00     0.049 C 
ENDROOT
BRANCH   1   4
ATOM      4  N   UNL     1      34.834  39.622   5.512  1.00  0.00    -0.235 N 
ATOM      5  C   UNL     1      31.265  40.216   5.352  1.00  0.00     0.070 C 
ATOM      6  C   UNL     1      32.690  39.970   5.697  1.00  0.00     0.080 A 
ATOM      7  C   UNL     1      33.722  39.831   4.799  1.00  0.00     0.135 A 
ATOM      8  N   UNL     1      33.200  39.841   6.933  1.00  0.00    -0.136 NA
ATOM      9  N   UNL     1      34.490  39.633   6.781  1.00  0.00    -0.066 NA
ENDBRANCH   1   4
BRANCH   1  10
ATOM     10  C   UNL     1      36.391  37.975   4.802  1.00  0.00     0.331 C 
ATOM     11  O   UNL     1      36.947  37.538   3.759  1.00  0.00    -0.250 OA
BRANCH  10  12
ATOM     12  O   UNL     1      35.973  37.122   5.816  1.00  0.00    -0.479 OA
ATOM     13  H   UNL     1      35.766  36.154   5.548  1.00  0.00     0.296 HD
ENDBRANCH  10  12
ENDBRANCH   1  10
TORSDOF 3
BEGIN_RES LYS A 135
REMARK  4 active torsions:
REMARK  status: ('A' for Active; 'I' for Inactive)
REMARK    1  A    between atoms: CA   and  CB  
REMARK    2  A    between atoms: CB   and  CG  
REMARK    3  A    between atoms: CG   and  CD  
REMARK    4  A    between atoms: CD   and  CE  
ROOT
ATOM      1  CA  LYS A 135      33.193  34.663   9.290  1.00 25.02     0.186 C 
ENDROOT
BRANCH   1   2
ATOM      2  CB  LYS A 135      32.060  35.360  10.034  1.00 26.63     0.034 C 
BRANCH   2   3
ATOM      3  CG  LYS A 135      30.706  34.752   9.776  1.00 29.45     0.005 C 
BRANCH   3   4
ATOM      4  CD  LYS A 135      30.477  34.564   8.284  1.00 32.00     0.041 C 
BRANCH   4   5
ATOM      5  CE  LYS A 135      29.026  34.830   7.930  1.00 34.25     0.338 C 
ATOM      6  NZ  LYS A 135      28.916  35.582   6.649  1.00 35.99     0.618 N 
ENDBRANCH   4   5
ENDBRANCH   3   4
ENDBRANCH   2   3
ENDBRANCH   1   2
END_RES LYS A 135
BEGIN_RES TYR A 136
REMARK  2 active torsions:
REMARK  status: ('A' for Active; 'I' for Inactive)
REMARK    5  A    between atoms: CA   and  CB  
REMARK    6  A    between atoms: CB   and  CG  
ROOT
ATOM      7  CA  TYR A 136      36.583  36.399   8.994  1.00 26.14     0.191 C 
ENDROOT
BRANCH   7   8
ATOM      8  CB  TYR A 136      37.367  36.835  10.240  1.00 28.16     0.060 C 
BRANCH   8   9
ATOM      9  CG  TYR A 136      37.277  38.320  10.492  1.00 31.88    -0.020 A 
ATOM     10  CD2 TYR A 136      37.746  38.881  11.682  1.00 32.67    -0.002 A 
ATOM     11  CE2 TYR A 136      37.656  40.262  11.906  1.00 33.89     0.027 A 
ATOM     12  CZ  TYR A 136      37.092  41.088  10.931  1.00 34.34     0.131 A 
ATOM     13  OH  TYR A 136      37.000  42.459  11.129  1.00 35.14    -0.190 OA
ATOM     14  CE1 TYR A 136      36.621  40.548   9.744  1.00 35.01     0.027 A 
ATOM     15  CD1 TYR A 136      36.710  39.170   9.534  1.00 33.57    -0.002 A 
ENDBRANCH   8   9
ENDBRANCH   7   8
END_RES TYR A 136
BEGIN_RES ASN A 133
REMARK  2 active torsions:
REMARK  status: ('A' for Active; 'I' for Inactive)
REMARK    7  A    between atoms: CA   and  CB  
REMARK    8  A    between atoms: CB   and  CG  
ROOT
ATOM     16  CA  ASN A 133      31.225  30.257  11.749  1.00 18.15     0.196 C 
ENDROOT
BRANCH  16  17
ATOM     17  CB  ASN A 133      30.092  31.240  11.460  1.00 18.27     0.126 C 
BRANCH  17  18
ATOM     18  CG  ASN A 133      28.751  30.583  11.354  1.00 18.94     0.276 C 
ATOM     19  OD1 ASN A 133      28.575  29.605  10.625  1.00 18.09    -0.269 OA
ATOM     20  ND2 ASN A 133      27.779  31.120  12.090  1.00 18.93    -0.107 N 
ENDBRANCH  17  18
ENDBRANCH  16  17
END_RES ASN A 133
