REMARK VINA RESULT:    -5.053      4.578      5.783
REMARK INTER + INTRA:          -6.662
REMARK INTER:                  -3.688
REMARK INTRA:                  -2.974
REMARK UNBOUND:                -1.313
REMARK SMILES Cc1cn(-c2ccccc2I)nn1
REMARK SMILES IDX 5 1 6 2 7 3 8 4 9 5 10 6 11 7 4 8 1 9 2 10 3 11 13 12 12 13
REMARK H PARENT
REMARK Flexibility Score: inf
ROOT
ATOM      1  C   UNL     1      30.506  31.919  17.782  1.00  0.00     0.080 A 
ATOM      2  C   UNL     1      30.556  31.466  16.480  1.00  0.00     0.029 A 
ATOM      3  C   UNL     1      31.133  32.209  15.461  1.00  0.00     0.002 A 
ATOM      4  C   UNL     1      31.685  33.455  15.741  1.00  0.00     0.001 A 
ATOM      5  C   UNL     1      31.644  33.926  17.039  1.00  0.00     0.017 A 
ATOM      6  C   UNL     1      31.065  33.167  18.033  1.00  0.00     0.039 A 
ATOM      7  I   UNL     1      31.019  33.917  20.005  1.00  0.00    -0.042 I 
ENDROOT
BRANCH   1   8
ATOM      8  N   UNL     1      29.906  31.139  18.820  1.00  0.00    -0.219 N 
ATOM      9  C   UNL     1      29.630  28.827  21.606  1.00  0.00     0.070 C 
ATOM     10  C   UNL     1      29.484  29.803  20.481  1.00  0.00     0.080 A 
ATOM     11  C   UNL     1      30.482  30.311  19.687  1.00  0.00     0.140 A 
ATOM     12  N   UNL     1      28.335  30.355  20.055  1.00  0.00    -0.135 NA
ATOM     13  N   UNL     1      28.605  31.152  19.061  1.00  0.00    -0.062 NA
ENDBRANCH   1   8
TORSDOF 1
BEGIN_RES LYS A 135
REMARK  4 active torsions:
REMARK  status: ('A' for Active; 'I' for Inactive)
REMARK    1  A    between atoms: CA   and  CB  
REMARK    2  A    between atoms: CB   and  CG  
REMARK    3  A    between atoms: CG   and  CD  
REMARK    4  A    between atoms: CD   and  CE  
ROOT
ATOM      1  CA  LYS A 135      33.193  34.663   9.290  1.00 25.02     0.186 C 
ENDROOT
BRANCH   1   2
ATOM      2  CB  LYS A 135      32.060  35.360  10.034  1.00 26.63     0.034 C 
BRANCH   2   3
ATOM      3  CG  LYS A 135      30.799  35.496   9.220  1.00 29.45     0.005 C 
BRANCH   3   4
ATOM      4  CD  LYS A 135      30.122  34.145   9.049  1.00 32.00     0.041 C 
BRANCH   4   5
ATOM      5  CE  LYS A 135      28.667  34.323   8.663  1.00 34.25     0.338 C 
ATOM      6  NZ  LYS A 135      28.534  35.187   7.458  1.00 35.99     0.618 N 
ENDBRANCH   4   5
ENDBRANCH   3   4
ENDBRANCH   2   3
ENDBRANCH   1   2
END_RES LYS A 135
BEGIN_RES TYR A 136
REMARK  2 active torsions:
REMARK  status: ('A' for Active; 'I' for Inactive)
REMARK    5  A    between atoms: CA   and  CB  
REMARK    6  A    between atoms: CB   and  CG  
ROOT
ATOM      7  CA  TYR A 136      36.583  36.399   8.994  1.00 26.14     0.191 C 
ENDROOT
BRANCH   7   8
ATOM      8  CB  TYR A 136      37.367  36.835  10.240  1.00 28.16     0.060 C 
BRANCH   8   9
ATOM      9  CG  TYR A 136      37.233  38.311  10.522  1.00 31.88    -0.020 A 
ATOM     10  CD2 TYR A 136      37.888  38.902  11.605  1.00 32.67    -0.002 A 
ATOM     11  CE2 TYR A 136      37.756  40.274  11.860  1.00 33.89     0.027 A 
ATOM     12  CZ  TYR A 136      36.961  41.062  11.023  1.00 34.34     0.131 A 
ATOM     13  OH  TYR A 136      36.822  42.424  11.252  1.00 35.14    -0.190 OA
ATOM     14  CE1 TYR A 136      36.303  40.491   9.944  1.00 35.01     0.027 A 
ATOM     15  CD1 TYR A 136      36.437  39.122   9.704  1.00 33.57    -0.002 A 
ENDBRANCH   8   9
ENDBRANCH   7   8
END_RES TYR A 136
BEGIN_RES ASN A 133
REMARK  2 active torsions:
REMARK  status: ('A' for Active; 'I' for Inactive)
REMARK    7  A    between atoms: CA   and  CB  
REMARK    8  A    between atoms: CB   and  CG  
ROOT
ATOM     16  CA  ASN A 133      31.225  30.257  11.749  1.00 18.15     0.196 C 
ENDROOT
BRANCH  16  17
ATOM     17  CB  ASN A 133      30.092  31.240  11.460  1.00 18.27     0.126 C 
BRANCH  17  18
ATOM     18  CG  ASN A 133      28.756  30.578  11.320  1.00 18.94     0.276 C 
ATOM     19  OD1 ASN A 133      28.597  29.614  10.569  1.00 18.09    -0.269 OA
ATOM     20  ND2 ASN A 133      27.769  31.098  12.049  1.00 18.93    -0.107 N 
ENDBRANCH  17  18
ENDBRANCH  16  17
END_RES ASN A 133
