REMARK VINA RESULT:    -5.602      0.523      3.207
REMARK INTER + INTRA:          -8.981
REMARK INTER:                  -6.265
REMARK INTRA:                  -2.716
REMARK UNBOUND:                -3.051
REMARK SMILES Cc1cn(-c2c3ccccc3nc3ccccc23)nn1
REMARK SMILES IDX 5 1 6 2 7 3 8 4 9 5 10 6 11 7 12 8 13 9 14 10 15 11 16 12
REMARK SMILES IDX 17 13 18 14 4 15 1 16 2 17 3 18 20 19 19 20
REMARK H PARENT
REMARK Flexibility Score: inf
ROOT
ATOM      1  C   UNL     1      35.704  36.185  13.583  1.00  0.00     0.085 A 
ATOM      2  C   UNL     1      36.112  37.395  14.116  1.00  0.00     0.027 A 
ATOM      3  C   UNL     1      35.189  38.366  14.443  1.00  0.00     0.012 A 
ATOM      4  C   UNL     1      35.623  39.562  14.972  1.00  0.00     0.001 A 
ATOM      5  C   UNL     1      36.977  39.738  15.154  1.00  0.00     0.002 A 
ATOM      6  C   UNL     1      37.889  38.770  14.830  1.00  0.00     0.029 A 
ATOM      7  C   UNL     1      37.471  37.553  14.292  1.00  0.00     0.073 A 
ATOM      8  N   UNL     1      38.382  36.619  13.980  1.00  0.00    -0.248 NA
ATOM      9  C   UNL     1      37.986  35.422  13.453  1.00  0.00     0.073 A 
ATOM     10  C   UNL     1      38.917  34.455  13.129  1.00  0.00     0.029 A 
ATOM     11  C   UNL     1      38.454  33.270  12.601  1.00  0.00     0.002 A 
ATOM     12  C   UNL     1      37.106  33.043  12.398  1.00  0.00     0.001 A 
ATOM     13  C   UNL     1      36.206  34.006  12.723  1.00  0.00     0.012 A 
ATOM     14  C   UNL     1      36.644  35.198  13.252  1.00  0.00     0.027 A 
ENDROOT
BRANCH   1  15
ATOM     15  N   UNL     1      34.327  35.922  13.362  1.00  0.00    -0.219 N 
ATOM     16  C   UNL     1      31.000  34.598  14.161  1.00  0.00     0.070 C 
ATOM     17  C   UNL     1      32.244  35.231  13.596  1.00  0.00     0.080 A 
ATOM     18  C   UNL     1      33.491  35.271  14.179  1.00  0.00     0.140 A 
ATOM     19  N   UNL     1      32.350  35.864  12.420  1.00  0.00    -0.135 NA
ATOM     20  N   UNL     1      33.601  36.258  12.322  1.00  0.00    -0.062 NA
ENDBRANCH   1  15
TORSDOF 1
BEGIN_RES LYS A 135
REMARK  4 active torsions:
REMARK  status: ('A' for Active; 'I' for Inactive)
REMARK    1  A    between atoms: CA   and  CB  
REMARK    2  A    between atoms: CB   and  CG  
REMARK    3  A    between atoms: CG   and  CD  
REMARK    4  A    between atoms: CD   and  CE  
ROOT
ATOM      1  CA  LYS A 135      33.193  34.663   9.290  1.00 25.02     0.186 C 
ENDROOT
BRANCH   1   2
ATOM      2  CB  LYS A 135      32.060  35.360  10.034  1.00 26.63     0.034 C 
BRANCH   2   3
ATOM      3  CG  LYS A 135      30.806  35.515   9.213  1.00 29.45     0.005 C 
BRANCH   3   4
ATOM      4  CD  LYS A 135      30.057  34.194   9.124  1.00 32.00     0.041 C 
BRANCH   4   5
ATOM      5  CE  LYS A 135      28.690  34.398   8.498  1.00 34.25     0.338 C 
ATOM      6  NZ  LYS A 135      28.569  35.759   7.906  1.00 35.99     0.618 N 
ENDBRANCH   4   5
ENDBRANCH   3   4
ENDBRANCH   2   3
ENDBRANCH   1   2
END_RES LYS A 135
BEGIN_RES TYR A 136
REMARK  2 active torsions:
REMARK  status: ('A' for Active; 'I' for Inactive)
REMARK    5  A    between atoms: CA   and  CB  
REMARK    6  A    between atoms: CB   and  CG  
ROOT
ATOM      7  CA  TYR A 136      36.583  36.399   8.994  1.00 26.14     0.191 C 
ENDROOT
BRANCH   7   8
ATOM      8  CB  TYR A 136      37.367  36.835  10.240  1.00 28.16     0.060 C 
BRANCH   8   9
ATOM      9  CG  TYR A 136      37.025  38.238  10.679  1.00 31.88    -0.020 A 
ATOM     10  CD2 TYR A 136      38.019  39.129  11.090  1.00 32.67    -0.002 A 
ATOM     11  CE2 TYR A 136      37.691  40.429  11.498  1.00 33.89     0.027 A 
ATOM     12  CZ  TYR A 136      36.356  40.841  11.495  1.00 34.34     0.131 A 
ATOM     13  OH  TYR A 136      36.009  42.126  11.887  1.00 35.14    -0.190 OA
ATOM     14  CE1 TYR A 136      35.356  39.969  11.090  1.00 35.01     0.027 A 
ATOM     15  CD1 TYR A 136      35.694  38.674  10.692  1.00 33.57    -0.002 A 
ENDBRANCH   8   9
ENDBRANCH   7   8
END_RES TYR A 136
BEGIN_RES ASN A 133
REMARK  2 active torsions:
REMARK  status: ('A' for Active; 'I' for Inactive)
REMARK    7  A    between atoms: CA   and  CB  
REMARK    8  A    between atoms: CB   and  CG  
ROOT
ATOM     16  CA  ASN A 133      31.225  30.257  11.749  1.00 18.15     0.196 C 
ENDROOT
BRANCH  16  17
ATOM     17  CB  ASN A 133      30.092  31.240  11.460  1.00 18.27     0.126 C 
BRANCH  17  18
ATOM     18  CG  ASN A 133      28.751  30.582  11.351  1.00 18.94     0.276 C 
ATOM     19  OD1 ASN A 133      28.578  29.604  10.623  1.00 18.09    -0.269 OA
ATOM     20  ND2 ASN A 133      27.777  31.121  12.083  1.00 18.93    -0.107 N 
ENDBRANCH  17  18
ENDBRANCH  16  17
END_RES ASN A 133
