REMARK VINA RESULT:    -5.544      2.253      3.970
REMARK INTER + INTRA:          -7.182
REMARK INTER:                  -4.241
REMARK INTRA:                  -2.941
REMARK UNBOUND:                -1.313
REMARK SMILES Cc1cn(-c2ccccc2I)nn1
REMARK SMILES IDX 5 1 6 2 7 3 8 4 9 5 10 6 11 7 4 8 1 9 2 10 3 11 13 12 12 13
REMARK H PARENT
REMARK Flexibility Score: inf
ROOT
ATOM      1  C   UNL     1      36.785  35.310  14.654  1.00  0.00     0.080 A 
ATOM      2  C   UNL     1      35.935  36.050  15.449  1.00  0.00     0.029 A 
ATOM      3  C   UNL     1      34.563  36.065  15.249  1.00  0.00     0.002 A 
ATOM      4  C   UNL     1      34.006  35.316  14.217  1.00  0.00     0.001 A 
ATOM      5  C   UNL     1      34.842  34.569  13.409  1.00  0.00     0.017 A 
ATOM      6  C   UNL     1      36.203  34.572  13.630  1.00  0.00     0.039 A 
ATOM      7  I   UNL     1      37.450  33.419  12.379  1.00  0.00    -0.042 I 
ENDROOT
BRANCH   1   8
ATOM      8  N   UNL     1      38.198  35.307  14.876  1.00  0.00    -0.219 N 
ATOM      9  C   UNL     1      41.420  34.365  16.260  1.00  0.00     0.070 C 
ATOM     10  C   UNL     1      40.229  34.926  15.547  1.00  0.00     0.080 A 
ATOM     11  C   UNL     1      38.918  34.550  15.699  1.00  0.00     0.140 A 
ATOM     12  N   UNL     1      40.245  35.904  14.627  1.00  0.00    -0.135 NA
ATOM     13  N   UNL     1      39.022  36.121  14.235  1.00  0.00    -0.062 NA
ENDBRANCH   1   8
TORSDOF 1
BEGIN_RES LYS A 135
REMARK  4 active torsions:
REMARK  status: ('A' for Active; 'I' for Inactive)
REMARK    1  A    between atoms: CA   and  CB  
REMARK    2  A    between atoms: CB   and  CG  
REMARK    3  A    between atoms: CG   and  CD  
REMARK    4  A    between atoms: CD   and  CE  
ROOT
ATOM      1  CA  LYS A 135      33.193  34.663   9.290  1.00 25.02     0.186 C 
ENDROOT
BRANCH   1   2
ATOM      2  CB  LYS A 135      32.060  35.360  10.034  1.00 26.63     0.034 C 
BRANCH   2   3
ATOM      3  CG  LYS A 135      30.722  34.688   9.861  1.00 29.45     0.005 C 
BRANCH   3   4
ATOM      4  CD  LYS A 135      30.363  34.581   8.387  1.00 32.00     0.041 C 
BRANCH   4   5
ATOM      5  CE  LYS A 135      28.857  34.603   8.203  1.00 34.25     0.338 C 
ATOM      6  NZ  LYS A 135      28.169  33.912   9.328  1.00 35.99     0.618 N 
ENDBRANCH   4   5
ENDBRANCH   3   4
ENDBRANCH   2   3
ENDBRANCH   1   2
END_RES LYS A 135
BEGIN_RES TYR A 136
REMARK  2 active torsions:
REMARK  status: ('A' for Active; 'I' for Inactive)
REMARK    5  A    between atoms: CA   and  CB  
REMARK    6  A    between atoms: CB   and  CG  
ROOT
ATOM      7  CA  TYR A 136      36.583  36.399   8.994  1.00 26.14     0.191 C 
ENDROOT
BRANCH   7   8
ATOM      8  CB  TYR A 136      37.367  36.835  10.240  1.00 28.16     0.060 C 
BRANCH   8   9
ATOM      9  CG  TYR A 136      36.760  38.040  10.916  1.00 31.88    -0.020 A 
ATOM     10  CD2 TYR A 136      36.056  37.918  12.116  1.00 32.67    -0.002 A 
ATOM     11  CE2 TYR A 136      35.494  39.043  12.735  1.00 33.89     0.027 A 
ATOM     12  CZ  TYR A 136      35.637  40.302  12.146  1.00 34.34     0.131 A 
ATOM     13  OH  TYR A 136      35.095  41.431  12.745  1.00 35.14    -0.190 OA
ATOM     14  CE1 TYR A 136      36.331  40.441  10.953  1.00 35.01     0.027 A 
ATOM     15  CD1 TYR A 136      36.881  39.312  10.343  1.00 33.57    -0.002 A 
ENDBRANCH   8   9
ENDBRANCH   7   8
END_RES TYR A 136
BEGIN_RES ASN A 133
REMARK  2 active torsions:
REMARK  status: ('A' for Active; 'I' for Inactive)
REMARK    7  A    between atoms: CA   and  CB  
REMARK    8  A    between atoms: CB   and  CG  
ROOT
ATOM     16  CA  ASN A 133      31.225  30.257  11.749  1.00 18.15     0.196 C 
ENDROOT
BRANCH  16  17
ATOM     17  CB  ASN A 133      30.092  31.240  11.460  1.00 18.27     0.126 C 
BRANCH  17  18
ATOM     18  CG  ASN A 133      28.753  30.581  11.343  1.00 18.94     0.276 C 
ATOM     19  OD1 ASN A 133      28.587  29.596  10.620  1.00 18.09    -0.269 OA
ATOM     20  ND2 ASN A 133      27.770  31.126  12.059  1.00 18.93    -0.107 N 
ENDBRANCH  17  18
ENDBRANCH  16  17
END_RES ASN A 133
