REMARK VINA RESULT:    -2.765      7.766     14.208
REMARK INTER + INTRA:          -6.076
REMARK INTER:                  -3.393
REMARK INTRA:                  -2.683
REMARK UNBOUND:                -3.149
REMARK SMILES Cc1cn(-c2ccncc2)nn1
REMARK SMILES IDX 1 1 2 2 3 3 4 4 11 5 12 6 5 7 6 8 10 9 7 10 9 11 8 12
REMARK H PARENT
REMARK Flexibility Score: inf
ROOT
ATOM      1  C   UNL     1      35.186  37.619  17.726  1.00  0.00     0.070 C 
ATOM      2  C   UNL     1      35.246  36.820  16.487  1.00  0.00     0.080 A 
ATOM      3  C   UNL     1      36.330  36.138  15.952  1.00  0.00     0.140 A 
ATOM      4  N   UNL     1      35.949  35.541  14.812  1.00  0.00    -0.220 N 
ATOM      5  N   UNL     1      34.672  35.836  14.638  1.00  0.00    -0.062 NA
ATOM      6  N   UNL     1      34.234  36.600  15.629  1.00  0.00    -0.135 NA
ENDROOT
BRANCH   4   7
ATOM      7  C   UNL     1      36.778  34.746  13.969  1.00  0.00     0.069 A 
ATOM      8  C   UNL     1      38.140  34.664  14.203  1.00  0.00     0.048 A 
ATOM      9  C   UNL     1      36.289  34.032  12.901  1.00  0.00     0.048 A 
ATOM     10  C   UNL     1      38.927  33.899  13.388  1.00  0.00     0.113 A 
ATOM     11  C   UNL     1      37.085  33.262  12.082  1.00  0.00     0.113 A 
ATOM     12  N   UNL     1      38.397  33.225  12.363  1.00  0.00    -0.265 NA
ENDBRANCH   4   7
TORSDOF 1
BEGIN_RES LYS A 135
REMARK  4 active torsions:
REMARK  status: ('A' for Active; 'I' for Inactive)
REMARK    1  A    between atoms: CA   and  CB  
REMARK    2  A    between atoms: CB   and  CG  
REMARK    3  A    between atoms: CG   and  CD  
REMARK    4  A    between atoms: CD   and  CE  
ROOT
ATOM      1  CA  LYS A 135      33.193  34.663   9.290  1.00 25.02     0.186 C 
ENDROOT
BRANCH   1   2
ATOM      2  CB  LYS A 135      32.060  35.360  10.034  1.00 26.63     0.034 C 
BRANCH   2   3
ATOM      3  CG  LYS A 135      30.859  35.647   9.170  1.00 29.45     0.005 C 
BRANCH   3   4
ATOM      4  CD  LYS A 135      30.365  34.376   8.497  1.00 32.00     0.041 C 
BRANCH   4   5
ATOM      5  CE  LYS A 135      28.851  34.368   8.419  1.00 34.25     0.338 C 
ATOM      6  NZ  LYS A 135      28.251  33.855   9.681  1.00 35.99     0.618 N 
ENDBRANCH   4   5
ENDBRANCH   3   4
ENDBRANCH   2   3
ENDBRANCH   1   2
END_RES LYS A 135
BEGIN_RES TYR A 136
REMARK  2 active torsions:
REMARK  status: ('A' for Active; 'I' for Inactive)
REMARK    5  A    between atoms: CA   and  CB  
REMARK    6  A    between atoms: CB   and  CG  
ROOT
ATOM      7  CA  TYR A 136      36.583  36.399   8.994  1.00 26.14     0.191 C 
ENDROOT
BRANCH   7   8
ATOM      8  CB  TYR A 136      37.367  36.835  10.240  1.00 28.16     0.060 C 
BRANCH   8   9
ATOM      9  CG  TYR A 136      36.763  38.044  10.912  1.00 31.88    -0.020 A 
ATOM     10  CD2 TYR A 136      36.461  39.198  10.187  1.00 32.67    -0.002 A 
ATOM     11  CE2 TYR A 136      35.901  40.316  10.821  1.00 33.89     0.027 A 
ATOM     12  CZ  TYR A 136      35.643  40.279  12.193  1.00 34.34     0.131 A 
ATOM     13  OH  TYR A 136      35.084  41.371  12.841  1.00 35.14    -0.190 OA
ATOM     14  CE1 TYR A 136      35.939  39.140  12.929  1.00 35.01     0.027 A 
ATOM     15  CD1 TYR A 136      36.501  38.035  12.288  1.00 33.57    -0.002 A 
ENDBRANCH   8   9
ENDBRANCH   7   8
END_RES TYR A 136
BEGIN_RES ASN A 133
REMARK  2 active torsions:
REMARK  status: ('A' for Active; 'I' for Inactive)
REMARK    7  A    between atoms: CA   and  CB  
REMARK    8  A    between atoms: CB   and  CG  
ROOT
ATOM     16  CA  ASN A 133      31.225  30.257  11.749  1.00 18.15     0.196 C 
ENDROOT
BRANCH  16  17
ATOM     17  CB  ASN A 133      30.092  31.240  11.460  1.00 18.27     0.126 C 
BRANCH  17  18
ATOM     18  CG  ASN A 133      28.752  30.581  11.345  1.00 18.94     0.276 C 
ATOM     19  OD1 ASN A 133      27.801  30.943  12.040  1.00 18.09    -0.269 OA
ATOM     20  ND2 ASN A 133      28.663  29.594  10.454  1.00 18.93    -0.107 N 
ENDBRANCH  17  18
ENDBRANCH  16  17
END_RES ASN A 133
