REMARK VINA RESULT:    -2.847      7.719     15.296
REMARK INTER + INTRA:          -6.135
REMARK INTER:                  -3.013
REMARK INTRA:                  -3.121
REMARK UNBOUND:                -3.121
REMARK SMILES Cc1cn(-c2cccnc2)nn1
REMARK SMILES IDX 1 1 2 2 3 3 4 4 11 5 12 6 5 7 6 8 10 9 7 10 9 11 8 12
REMARK H PARENT
REMARK Flexibility Score: inf
ROOT
ATOM      1  C   UNL     1      33.135  29.697  21.446  1.00  0.00     0.070 C 
ATOM      2  C   UNL     1      31.934  28.843  21.241  1.00  0.00     0.080 A 
ATOM      3  C   UNL     1      30.745  29.208  20.648  1.00  0.00     0.140 A 
ATOM      4  N   UNL     1      29.896  28.161  20.646  1.00  0.00    -0.219 N 
ATOM      5  N   UNL     1      30.551  27.168  21.227  1.00  0.00    -0.062 NA
ATOM      6  N   UNL     1      31.762  27.546  21.589  1.00  0.00    -0.135 NA
ENDROOT
BRANCH   4   7
ATOM      7  C   UNL     1      28.576  28.159  20.119  1.00  0.00     0.085 A 
ATOM      8  C   UNL     1      27.666  27.178  20.442  1.00  0.00     0.031 A 
ATOM      9  C   UNL     1      28.195  29.167  19.261  1.00  0.00     0.139 A 
ATOM     10  C   UNL     1      26.388  27.192  19.922  1.00  0.00     0.022 A 
ATOM     11  N   UNL     1      26.931  29.186  18.743  1.00  0.00    -0.262 NA
ATOM     12  C   UNL     1      26.054  28.221  19.067  1.00  0.00     0.111 A 
ENDBRANCH   4   7
TORSDOF 1
BEGIN_RES LYS A 135
REMARK  4 active torsions:
REMARK  status: ('A' for Active; 'I' for Inactive)
REMARK    1  A    between atoms: CA   and  CB  
REMARK    2  A    between atoms: CB   and  CG  
REMARK    3  A    between atoms: CG   and  CD  
REMARK    4  A    between atoms: CD   and  CE  
ROOT
ATOM      1  CA  LYS A 135      33.193  34.663   9.290  1.00 25.02     0.186 C 
ENDROOT
BRANCH   1   2
ATOM      2  CB  LYS A 135      32.060  35.360  10.034  1.00 26.63     0.034 C 
BRANCH   2   3
ATOM      3  CG  LYS A 135      30.806  35.515   9.213  1.00 29.45     0.005 C 
BRANCH   3   4
ATOM      4  CD  LYS A 135      30.053  34.196   9.130  1.00 32.00     0.041 C 
BRANCH   4   5
ATOM      5  CE  LYS A 135      28.655  34.414   8.582  1.00 34.25     0.338 C 
ATOM      6  NZ  LYS A 135      27.634  33.745   9.436  1.00 35.99     0.618 N 
ENDBRANCH   4   5
ENDBRANCH   3   4
ENDBRANCH   2   3
ENDBRANCH   1   2
END_RES LYS A 135
BEGIN_RES TYR A 136
REMARK  2 active torsions:
REMARK  status: ('A' for Active; 'I' for Inactive)
REMARK    5  A    between atoms: CA   and  CB  
REMARK    6  A    between atoms: CB   and  CG  
ROOT
ATOM      7  CA  TYR A 136      36.583  36.399   8.994  1.00 26.14     0.191 C 
ENDROOT
BRANCH   7   8
ATOM      8  CB  TYR A 136      37.367  36.835  10.240  1.00 28.16     0.060 C 
BRANCH   8   9
ATOM      9  CG  TYR A 136      37.216  38.307  10.535  1.00 31.88    -0.020 A 
ATOM     10  CD2 TYR A 136      38.167  39.233  10.098  1.00 32.67    -0.002 A 
ATOM     11  CE2 TYR A 136      38.019  40.598  10.378  1.00 33.89     0.027 A 
ATOM     12  CZ  TYR A 136      36.909  41.041  11.103  1.00 34.34     0.131 A 
ATOM     13  OH  TYR A 136      36.738  42.389  11.386  1.00 35.14    -0.190 OA
ATOM     14  CE1 TYR A 136      35.956  40.135  11.545  1.00 35.01     0.027 A 
ATOM     15  CD1 TYR A 136      36.118  38.777  11.265  1.00 33.57    -0.002 A 
ENDBRANCH   8   9
ENDBRANCH   7   8
END_RES TYR A 136
BEGIN_RES ASN A 133
REMARK  2 active torsions:
REMARK  status: ('A' for Active; 'I' for Inactive)
REMARK    7  A    between atoms: CA   and  CB  
REMARK    8  A    between atoms: CB   and  CG  
ROOT
ATOM     16  CA  ASN A 133      31.225  30.257  11.749  1.00 18.15     0.196 C 
ENDROOT
BRANCH  16  17
ATOM     17  CB  ASN A 133      30.092  31.240  11.460  1.00 18.27     0.126 C 
BRANCH  17  18
ATOM     18  CG  ASN A 133      28.754  30.580  11.334  1.00 18.94     0.276 C 
ATOM     19  OD1 ASN A 133      28.594  29.595  10.610  1.00 18.09    -0.269 OA
ATOM     20  ND2 ASN A 133      27.767  31.124  12.045  1.00 18.93    -0.107 N 
ENDBRANCH  17  18
ENDBRANCH  16  17
END_RES ASN A 133
