REMARK VINA RESULT:    -4.167      2.394      6.250
REMARK INTER + INTRA:         -10.256
REMARK INTER:                  -6.626
REMARK INTRA:                  -3.630
REMARK UNBOUND:                -4.262
REMARK SMILES Cc1cn(CC(=O)NCC(O)Cn2ccnc2[N+](=O)[O-])nn1
REMARK SMILES IDX 9 1 8 2 6 3 7 4 5 6 4 7 1 8 2 9 3 10 22 11 21 12 10 13 11 14
REMARK SMILES IDX 12 16 13 17 14 18 17 19 15 20 16 21 18 22 19 23 20 24
REMARK H PARENT 8 5 11 15
REMARK Flexibility Score: inf
ROOT
ATOM      1  C   UNL     1      32.102  34.139  15.837  1.00  0.00     0.151 C 
ENDROOT
BRANCH   1   2
ATOM      2  N   UNL     1      32.948  34.272  14.675  1.00  0.00    -0.352 N 
ATOM      3  C   UNL     1      33.438  35.494  14.146  1.00  0.00     0.241 C 
ATOM      4  O   UNL     1      33.141  36.569  14.709  1.00  0.00    -0.273 OA
ATOM      5  H   UNL     1      33.227  33.367  14.171  1.00  0.00     0.163 HD
BRANCH   3   6
ATOM      6  C   UNL     1      34.295  35.434  12.928  1.00  0.00     0.245 C 
BRANCH   6   7
ATOM      7  N   UNL     1      35.545  34.788  13.213  1.00  0.00    -0.243 N 
ATOM      8  C   UNL     1      38.454  32.639  12.705  1.00  0.00     0.070 C 
ATOM      9  C   UNL     1      37.372  33.573  13.138  1.00  0.00     0.080 A 
ATOM     10  C   UNL     1      36.240  33.922  12.454  1.00  0.00     0.134 A 
ATOM     11  N   UNL     1      37.344  34.237  14.306  1.00  0.00    -0.136 NA
ATOM     12  N   UNL     1      36.235  34.962  14.329  1.00  0.00    -0.067 NA
ENDBRANCH   6   7
ENDBRANCH   3   6
ENDBRANCH   1   2
BRANCH   1  13
ATOM     13  C   UNL     1      31.455  32.823  16.001  1.00  0.00     0.168 C 
BRANCH  13  14
ATOM     14  O   UNL     1      31.453  32.011  14.861  1.00  0.00    -0.388 OA
ATOM     15  H   UNL     1      31.976  31.204  14.973  1.00  0.00     0.211 HD
ENDBRANCH  13  14
BRANCH  13  16
ATOM     16  C   UNL     1      30.060  32.810  16.554  1.00  0.00     0.239 C 
BRANCH  16  17
ATOM     17  N   UNL     1      29.853  31.978  17.699  1.00  0.00    -0.227 N 
ATOM     18  C   UNL     1      30.497  32.121  18.908  1.00  0.00     0.204 A 
ATOM     19  C   UNL     1      29.041  30.915  17.741  1.00  0.00     0.434 A 
ATOM     20  C   UNL     1      30.052  31.098  19.705  1.00  0.00     0.245 A 
ATOM     21  N   UNL     1      29.184  30.380  19.009  1.00  0.00    -0.074 NA
BRANCH  19  22
ATOM     22  N   UNL     1      28.151  30.363  16.775  1.00  0.00    -0.047 N 
ATOM     23  O   UNL     1      26.929  30.346  16.911  1.00  0.00    -0.390 OA
ATOM     24  O   UNL     1      28.648  29.790  15.632  1.00  0.00    -0.390 OA
ENDBRANCH  19  22
ENDBRANCH  16  17
ENDBRANCH  13  16
ENDBRANCH   1  13
TORSDOF 8
BEGIN_RES LYS A 135
REMARK  4 active torsions:
REMARK  status: ('A' for Active; 'I' for Inactive)
REMARK    1  A    between atoms: CA   and  CB  
REMARK    2  A    between atoms: CB   and  CG  
REMARK    3  A    between atoms: CG   and  CD  
REMARK    4  A    between atoms: CD   and  CE  
ROOT
ATOM      1  CA  LYS A 135      33.193  34.663   9.290  1.00 25.02     0.186 C 
ENDROOT
BRANCH   1   2
ATOM      2  CB  LYS A 135      32.060  35.360  10.034  1.00 26.63     0.034 C 
BRANCH   2   3
ATOM      3  CG  LYS A 135      30.821  35.556   9.199  1.00 29.45     0.005 C 
BRANCH   3   4
ATOM      4  CD  LYS A 135      30.038  34.256   9.087  1.00 32.00     0.041 C 
BRANCH   4   5
ATOM      5  CE  LYS A 135      28.560  34.540   8.904  1.00 34.25     0.338 C 
ATOM      6  NZ  LYS A 135      27.729  33.574   9.675  1.00 35.99     0.618 N 
ENDBRANCH   4   5
ENDBRANCH   3   4
ENDBRANCH   2   3
ENDBRANCH   1   2
END_RES LYS A 135
BEGIN_RES TYR A 136
REMARK  2 active torsions:
REMARK  status: ('A' for Active; 'I' for Inactive)
REMARK    5  A    between atoms: CA   and  CB  
REMARK    6  A    between atoms: CB   and  CG  
ROOT
ATOM      7  CA  TYR A 136      36.583  36.399   8.994  1.00 26.14     0.191 C 
ENDROOT
BRANCH   7   8
ATOM      8  CB  TYR A 136      37.367  36.835  10.240  1.00 28.16     0.060 C 
BRANCH   8   9
ATOM      9  CG  TYR A 136      37.181  38.298  10.560  1.00 31.88    -0.020 A 
ATOM     10  CD2 TYR A 136      36.177  38.725  11.432  1.00 32.67    -0.002 A 
ATOM     11  CE2 TYR A 136      36.011  40.086  11.722  1.00 33.89     0.027 A 
ATOM     12  CZ  TYR A 136      36.857  41.029  11.133  1.00 34.34     0.131 A 
ATOM     13  OH  TYR A 136      36.716  42.381  11.411  1.00 35.14    -0.190 OA
ATOM     14  CE1 TYR A 136      37.860  40.622  10.264  1.00 35.01     0.027 A 
ATOM     15  CD1 TYR A 136      38.011  39.264   9.978  1.00 33.57    -0.002 A 
ENDBRANCH   8   9
ENDBRANCH   7   8
END_RES TYR A 136
BEGIN_RES ASN A 133
REMARK  2 active torsions:
REMARK  status: ('A' for Active; 'I' for Inactive)
REMARK    7  A    between atoms: CA   and  CB  
REMARK    8  A    between atoms: CB   and  CG  
ROOT
ATOM     16  CA  ASN A 133      31.225  30.257  11.749  1.00 18.15     0.196 C 
ENDROOT
BRANCH  16  17
ATOM     17  CB  ASN A 133      30.092  31.240  11.460  1.00 18.27     0.126 C 
BRANCH  17  18
ATOM     18  CG  ASN A 133      28.740  30.596  11.441  1.00 18.94     0.276 C 
ATOM     19  OD1 ASN A 133      28.500  29.639  10.702  1.00 18.09    -0.269 OA
ATOM     20  ND2 ASN A 133      27.832  31.122  12.262  1.00 18.93    -0.107 N 
ENDBRANCH  17  18
ENDBRANCH  16  17
END_RES ASN A 133
