REMARK VINA RESULT:    -2.896      7.733     11.665
REMARK INTER + INTRA:          -7.117
REMARK INTER:                  -3.715
REMARK INTRA:                  -3.402
REMARK UNBOUND:                -3.374
REMARK SMILES CCN(CC)CCn1cc(C)nn1
REMARK SMILES IDX 6 1 7 2 8 3 11 4 10 5 9 6 12 7 13 8 3 9 2 10 1 11 4 12 5 13
REMARK H PARENT
REMARK Flexibility Score: inf
ROOT
ATOM      1  C   UNL     1      38.812  37.968   2.764  1.00  0.00     0.108 C 
ENDROOT
BRANCH   1   2
ATOM      2  C   UNL     1      38.269  37.238   3.932  1.00  0.00     0.161 C 
BRANCH   2   3
ATOM      3  N   UNL     1      37.358  38.094   4.724  1.00  0.00    -0.251 N 
ATOM      4  C   UNL     1      36.175  41.104   6.434  1.00  0.00     0.070 C 
ATOM      5  C   UNL     1      36.451  39.796   5.818  1.00  0.00     0.080 A 
ATOM      6  C   UNL     1      37.541  39.375   5.088  1.00  0.00     0.134 A 
ATOM      7  N   UNL     1      35.631  38.737   5.871  1.00  0.00    -0.136 NA
ATOM      8  N   UNL     1      36.176  37.732   5.221  1.00  0.00    -0.067 NA
ENDBRANCH   2   3
ENDBRANCH   1   2
BRANCH   1   9
ATOM      9  N   UNL     1      38.116  37.932   1.544  1.00  0.00    -0.302 NA
BRANCH   9  10
ATOM     10  C   UNL     1      36.804  37.425   1.485  1.00  0.00     0.081 C 
ATOM     11  C   UNL     1      35.798  38.525   1.524  1.00  0.00     0.021 C 
ENDBRANCH   9  10
BRANCH   9  12
ATOM     12  C   UNL     1      38.385  39.082   0.699  1.00  0.00     0.081 C 
ATOM     13  C   UNL     1      38.927  38.698  -0.646  1.00  0.00     0.021 C 
ENDBRANCH   9  12
ENDBRANCH   1   9
TORSDOF 5
BEGIN_RES LYS A 135
REMARK  4 active torsions:
REMARK  status: ('A' for Active; 'I' for Inactive)
REMARK    1  A    between atoms: CA   and  CB  
REMARK    2  A    between atoms: CB   and  CG  
REMARK    3  A    between atoms: CG   and  CD  
REMARK    4  A    between atoms: CD   and  CE  
ROOT
ATOM      1  CA  LYS A 135      33.193  34.663   9.290  1.00 25.02     0.186 C 
ENDROOT
BRANCH   1   2
ATOM      2  CB  LYS A 135      32.060  35.360  10.034  1.00 26.63     0.034 C 
BRANCH   2   3
ATOM      3  CG  LYS A 135      30.709  34.736   9.796  1.00 29.45     0.005 C 
BRANCH   3   4
ATOM      4  CD  LYS A 135      30.467  34.532   8.308  1.00 32.00     0.041 C 
BRANCH   4   5
ATOM      5  CE  LYS A 135      29.021  34.830   7.959  1.00 34.25     0.338 C 
ATOM      6  NZ  LYS A 135      28.921  35.545   6.656  1.00 35.99     0.618 N 
ENDBRANCH   4   5
ENDBRANCH   3   4
ENDBRANCH   2   3
ENDBRANCH   1   2
END_RES LYS A 135
BEGIN_RES TYR A 136
REMARK  2 active torsions:
REMARK  status: ('A' for Active; 'I' for Inactive)
REMARK    5  A    between atoms: CA   and  CB  
REMARK    6  A    between atoms: CB   and  CG  
ROOT
ATOM      7  CA  TYR A 136      36.583  36.399   8.994  1.00 26.14     0.191 C 
ENDROOT
BRANCH   7   8
ATOM      8  CB  TYR A 136      37.367  36.835  10.240  1.00 28.16     0.060 C 
BRANCH   8   9
ATOM      9  CG  TYR A 136      37.154  38.290  10.580  1.00 31.88    -0.020 A 
ATOM     10  CD2 TYR A 136      36.415  39.128   9.742  1.00 32.67    -0.002 A 
ATOM     11  CE2 TYR A 136      36.225  40.478  10.066  1.00 33.89     0.027 A 
ATOM     12  CZ  TYR A 136      36.778  40.994  11.240  1.00 34.34     0.131 A 
ATOM     13  OH  TYR A 136      36.596  42.326  11.584  1.00 35.14    -0.190 OA
ATOM     14  CE1 TYR A 136      37.516  40.176  12.084  1.00 35.01     0.027 A 
ATOM     15  CD1 TYR A 136      37.704  38.835  11.747  1.00 33.57    -0.002 A 
ENDBRANCH   8   9
ENDBRANCH   7   8
END_RES TYR A 136
BEGIN_RES ASN A 133
REMARK  2 active torsions:
REMARK  status: ('A' for Active; 'I' for Inactive)
REMARK    7  A    between atoms: CA   and  CB  
REMARK    8  A    between atoms: CB   and  CG  
ROOT
ATOM     16  CA  ASN A 133      31.225  30.257  11.749  1.00 18.15     0.196 C 
ENDROOT
BRANCH  16  17
ATOM     17  CB  ASN A 133      30.092  31.240  11.460  1.00 18.27     0.126 C 
BRANCH  17  18
ATOM     18  CG  ASN A 133      28.754  30.580  11.332  1.00 18.94     0.276 C 
ATOM     19  OD1 ASN A 133      28.582  29.630  10.566  1.00 18.09    -0.269 OA
ATOM     20  ND2 ASN A 133      27.781  31.084  12.090  1.00 18.93    -0.107 N 
ENDBRANCH  17  18
ENDBRANCH  16  17
END_RES ASN A 133
