REMARK VINA RESULT:    -6.893      2.226      4.341
REMARK INTER + INTRA:          -9.492
REMARK INTER:                  -5.858
REMARK INTRA:                  -3.634
REMARK UNBOUND:                -1.391
REMARK SMILES Cc1cn(C(c2ccccc2)c2ccccc2)nn1
REMARK SMILES IDX 5 1 4 2 1 3 2 4 3 5 19 6 18 7 6 8 7 9 11 10 8 11 10 12 9 13
REMARK SMILES IDX 12 14 13 15 17 16 14 17 16 18 15 19
REMARK H PARENT
REMARK Flexibility Score: inf
ROOT
ATOM      1  C   UNL     1      35.875  36.849  14.201  1.00  0.00     0.169 C 
ENDROOT
BRANCH   1   2
ATOM      2  N   UNL     1      35.332  36.517  15.517  1.00  0.00    -0.240 N 
ATOM      3  C   UNL     1      35.363  35.855  19.110  1.00  0.00     0.070 C 
ATOM      4  C   UNL     1      35.108  36.079  17.684  1.00  0.00     0.080 A 
ATOM      5  C   UNL     1      36.006  36.413  16.676  1.00  0.00     0.135 A 
ATOM      6  N   UNL     1      33.912  35.995  17.072  1.00  0.00    -0.136 NA
ATOM      7  N   UNL     1      34.067  36.258  15.790  1.00  0.00    -0.066 NA
ENDBRANCH   1   2
BRANCH   1   8
ATOM      8  C   UNL     1      34.956  37.669  13.383  1.00  0.00    -0.019 A 
ATOM      9  C   UNL     1      34.195  37.164  12.362  1.00  0.00     0.006 A 
ATOM     10  C   UNL     1      34.824  39.032  13.638  1.00  0.00     0.006 A 
ATOM     11  C   UNL     1      33.342  38.001  11.635  1.00  0.00     0.000 A 
ATOM     12  C   UNL     1      33.988  39.854  12.925  1.00  0.00     0.000 A 
ATOM     13  C   UNL     1      33.232  39.342  11.907  1.00  0.00     0.000 A 
ENDBRANCH   1   8
BRANCH   1  14
ATOM     14  C   UNL     1      36.414  35.672  13.519  1.00  0.00    -0.019 A 
ATOM     15  C   UNL     1      35.701  34.521  13.264  1.00  0.00     0.006 A 
ATOM     16  C   UNL     1      37.722  35.680  13.069  1.00  0.00     0.006 A 
ATOM     17  C   UNL     1      36.266  33.469  12.610  1.00  0.00     0.000 A 
ATOM     18  C   UNL     1      38.316  34.630  12.404  1.00  0.00     0.000 A 
ATOM     19  C   UNL     1      37.569  33.515  12.178  1.00  0.00     0.000 A 
ENDBRANCH   1  14
TORSDOF 3
BEGIN_RES LYS A 135
REMARK  4 active torsions:
REMARK  status: ('A' for Active; 'I' for Inactive)
REMARK    1  A    between atoms: CA   and  CB  
REMARK    2  A    between atoms: CB   and  CG  
REMARK    3  A    between atoms: CG   and  CD  
REMARK    4  A    between atoms: CD   and  CE  
ROOT
ATOM      1  CA  LYS A 135      33.193  34.663   9.290  1.00 25.02     0.186 C 
ENDROOT
BRANCH   1   2
ATOM      2  CB  LYS A 135      32.060  35.360  10.034  1.00 26.63     0.034 C 
BRANCH   2   3
ATOM      3  CG  LYS A 135      30.839  35.601   9.184  1.00 29.45     0.005 C 
BRANCH   3   4
ATOM      4  CD  LYS A 135      30.310  34.291   8.621  1.00 32.00     0.041 C 
BRANCH   4   5
ATOM      5  CE  LYS A 135      28.804  34.353   8.456  1.00 34.25     0.338 C 
ATOM      6  NZ  LYS A 135      28.110  33.757   9.632  1.00 35.99     0.618 N 
ENDBRANCH   4   5
ENDBRANCH   3   4
ENDBRANCH   2   3
ENDBRANCH   1   2
END_RES LYS A 135
BEGIN_RES TYR A 136
REMARK  2 active torsions:
REMARK  status: ('A' for Active; 'I' for Inactive)
REMARK    5  A    between atoms: CA   and  CB  
REMARK    6  A    between atoms: CB   and  CG  
ROOT
ATOM      7  CA  TYR A 136      36.583  36.399   8.994  1.00 26.14     0.191 C 
ENDROOT
BRANCH   7   8
ATOM      8  CB  TYR A 136      37.367  36.835  10.240  1.00 28.16     0.060 C 
BRANCH   8   9
ATOM      9  CG  TYR A 136      37.234  38.311  10.522  1.00 31.88    -0.020 A 
ATOM     10  CD2 TYR A 136      37.962  38.920  11.547  1.00 32.67    -0.002 A 
ATOM     11  CE2 TYR A 136      37.829  40.292  11.802  1.00 33.89     0.027 A 
ATOM     12  CZ  TYR A 136      36.960  41.062  11.025  1.00 34.34     0.131 A 
ATOM     13  OH  TYR A 136      36.819  42.423  11.254  1.00 35.14    -0.190 OA
ATOM     14  CE1 TYR A 136      36.229  40.473  10.003  1.00 35.01     0.027 A 
ATOM     15  CD1 TYR A 136      36.364  39.105   9.763  1.00 33.57    -0.002 A 
ENDBRANCH   8   9
ENDBRANCH   7   8
END_RES TYR A 136
BEGIN_RES ASN A 133
REMARK  2 active torsions:
REMARK  status: ('A' for Active; 'I' for Inactive)
REMARK    7  A    between atoms: CA   and  CB  
REMARK    8  A    between atoms: CB   and  CG  
ROOT
ATOM     16  CA  ASN A 133      31.225  30.257  11.749  1.00 18.15     0.196 C 
ENDROOT
BRANCH  16  17
ATOM     17  CB  ASN A 133      30.092  31.240  11.460  1.00 18.27     0.126 C 
BRANCH  17  18
ATOM     18  CG  ASN A 133      28.745  30.588  11.395  1.00 18.94     0.276 C 
ATOM     19  OD1 ASN A 133      28.553  29.589  10.700  1.00 18.09    -0.269 OA
ATOM     20  ND2 ASN A 133      27.788  31.156  12.127  1.00 18.93    -0.107 N 
ENDBRANCH  17  18
ENDBRANCH  16  17
END_RES ASN A 133
