REMARK VINA RESULT:    -2.751      9.464     12.278
REMARK INTER + INTRA:          -6.581
REMARK INTER:                  -3.153
REMARK INTRA:                  -3.428
REMARK UNBOUND:                -3.428
REMARK SMILES Cc1cn([C@@H](C)C(=O)O)nn1
REMARK SMILES IDX 5 1 6 2 4 3 1 4 2 5 3 6 11 7 10 8 7 9 8 10 9 11
REMARK H PARENT 9 12
REMARK Flexibility Score: inf
ROOT
ATOM      1  C   UNL     1      29.721  39.673  -4.019  1.00  0.00     0.215 C 
ATOM      2  C   UNL     1      29.299  39.088  -5.341  1.00  0.00     0.046 C 
ENDROOT
BRANCH   1   3
ATOM      3  N   UNL     1      31.159  39.491  -3.793  1.00  0.00    -0.238 N 
ATOM      4  C   UNL     1      34.504  40.371  -2.680  1.00  0.00     0.070 C 
ATOM      5  C   UNL     1      33.264  39.743  -3.228  1.00  0.00     0.080 A 
ATOM      6  C   UNL     1      32.016  40.342  -3.225  1.00  0.00     0.135 A 
ATOM      7  N   UNL     1      33.117  38.552  -3.796  1.00  0.00    -0.136 NA
ATOM      8  N   UNL     1      31.842  38.414  -4.130  1.00  0.00    -0.066 NA
ENDBRANCH   1   3
BRANCH   1   9
ATOM      9  C   UNL     1      28.973  39.023  -2.927  1.00  0.00     0.328 C 
ATOM     10  O   UNL     1      27.878  39.492  -2.560  1.00  0.00    -0.250 OA
BRANCH   9  11
ATOM     11  O   UNL     1      29.430  37.889  -2.270  1.00  0.00    -0.480 OA
ATOM     12  H   UNL     1      30.101  37.245  -2.719  1.00  0.00     0.296 HD
ENDBRANCH   9  11
ENDBRANCH   1   9
TORSDOF 3
BEGIN_RES LYS A 135
REMARK  4 active torsions:
REMARK  status: ('A' for Active; 'I' for Inactive)
REMARK    1  A    between atoms: CA   and  CB  
REMARK    2  A    between atoms: CB   and  CG  
REMARK    3  A    between atoms: CG   and  CD  
REMARK    4  A    between atoms: CD   and  CE  
ROOT
ATOM      1  CA  LYS A 135      33.193  34.663   9.290  1.00 25.02     0.186 C 
ENDROOT
BRANCH   1   2
ATOM      2  CB  LYS A 135      32.060  35.360  10.034  1.00 26.63     0.034 C 
BRANCH   2   3
ATOM      3  CG  LYS A 135      30.736  34.650   9.917  1.00 29.45     0.005 C 
BRANCH   3   4
ATOM      4  CD  LYS A 135      30.320  34.526   8.459  1.00 32.00     0.041 C 
BRANCH   4   5
ATOM      5  CE  LYS A 135      28.809  34.513   8.335  1.00 34.25     0.338 C 
ATOM      6  NZ  LYS A 135      28.183  33.797   9.482  1.00 35.99     0.618 N 
ENDBRANCH   4   5
ENDBRANCH   3   4
ENDBRANCH   2   3
ENDBRANCH   1   2
END_RES LYS A 135
BEGIN_RES TYR A 136
REMARK  2 active torsions:
REMARK  status: ('A' for Active; 'I' for Inactive)
REMARK    5  A    between atoms: CA   and  CB  
REMARK    6  A    between atoms: CB   and  CG  
ROOT
ATOM      7  CA  TYR A 136      36.583  36.399   8.994  1.00 26.14     0.191 C 
ENDROOT
BRANCH   7   8
ATOM      8  CB  TYR A 136      37.367  36.835  10.240  1.00 28.16     0.060 C 
BRANCH   8   9
ATOM      9  CG  TYR A 136      37.181  38.298  10.560  1.00 31.88    -0.020 A 
ATOM     10  CD2 TYR A 136      37.842  38.892  11.637  1.00 32.67    -0.002 A 
ATOM     11  CE2 TYR A 136      37.661  40.251  11.927  1.00 33.89     0.027 A 
ATOM     12  CZ  TYR A 136      36.811  41.023  11.132  1.00 34.34     0.131 A 
ATOM     13  OH  TYR A 136      36.622  42.373  11.396  1.00 35.14    -0.190 OA
ATOM     14  CE1 TYR A 136      36.145  40.449  10.059  1.00 35.01     0.027 A 
ATOM     15  CD1 TYR A 136      36.328  39.093   9.784  1.00 33.57    -0.002 A 
ENDBRANCH   8   9
ENDBRANCH   7   8
END_RES TYR A 136
BEGIN_RES ASN A 133
REMARK  2 active torsions:
REMARK  status: ('A' for Active; 'I' for Inactive)
REMARK    7  A    between atoms: CA   and  CB  
REMARK    8  A    between atoms: CB   and  CG  
ROOT
ATOM     16  CA  ASN A 133      31.225  30.257  11.749  1.00 18.15     0.196 C 
ENDROOT
BRANCH  16  17
ATOM     17  CB  ASN A 133      30.092  31.240  11.460  1.00 18.27     0.126 C 
BRANCH  17  18
ATOM     18  CG  ASN A 133      28.752  30.582  11.346  1.00 18.94     0.276 C 
ATOM     19  OD1 ASN A 133      28.583  29.600  10.621  1.00 18.09    -0.269 OA
ATOM     20  ND2 ASN A 133      27.773  31.124  12.070  1.00 18.93    -0.107 N 
ENDBRANCH  17  18
ENDBRANCH  16  17
END_RES ASN A 133
