REMARK VINA RESULT:    -4.053      0.000      0.000
REMARK INTER + INTRA:          -7.539
REMARK INTER:                  -4.281
REMARK INTRA:                  -3.259
REMARK UNBOUND:                -3.249
REMARK SMILES Cc1cn(C2CCN(C)CC2)nn1
REMARK SMILES IDX 5 1 6 2 7 3 8 4 9 5 10 6 11 7 4 8 1 9 2 10 3 11 13 12 12 13
REMARK H PARENT
REMARK Flexibility Score: inf
ROOT
ATOM      1  C   UNL     1      21.763  32.575  -1.399  1.00  0.00     0.111 C 
ATOM      2  C   UNL     1      21.927  33.699  -0.420  1.00  0.00     0.043 C 
ATOM      3  C   UNL     1      22.789  34.763  -1.102  1.00  0.00     0.086 C 
ATOM      4  N   UNL     1      22.153  35.098  -2.320  1.00  0.00    -0.306 NA
ATOM      5  C   UNL     1      22.244  36.436  -2.749  1.00  0.00     0.105 C 
ATOM      6  C   UNL     1      22.109  34.095  -3.310  1.00  0.00     0.086 C 
ATOM      7  C   UNL     1      22.546  32.771  -2.670  1.00  0.00     0.043 C 
ENDROOT
BRANCH   1   8
ATOM      8  N   UNL     1      22.209  31.358  -0.749  1.00  0.00    -0.249 N 
ATOM      9  C   UNL     1      23.637  29.439   1.948  1.00  0.00     0.070 C 
ATOM     10  C   UNL     1      23.026  29.955   0.701  1.00  0.00     0.080 A 
ATOM     11  C   UNL     1      22.746  31.278   0.466  1.00  0.00     0.134 A 
ATOM     12  N   UNL     1      22.648  29.265  -0.385  1.00  0.00    -0.136 NA
ATOM     13  N   UNL     1      22.161  30.142  -1.238  1.00  0.00    -0.067 NA
ENDBRANCH   1   8
TORSDOF 1
BEGIN_RES LYS A 135
REMARK  4 active torsions:
REMARK  status: ('A' for Active; 'I' for Inactive)
REMARK    1  A    between atoms: CA   and  CB  
REMARK    2  A    between atoms: CB   and  CG  
REMARK    3  A    between atoms: CG   and  CD  
REMARK    4  A    between atoms: CD   and  CE  
ROOT
ATOM      1  CA  LYS A 135      33.193  34.663   9.290  1.00 25.02     0.186 C 
ENDROOT
BRANCH   1   2
ATOM      2  CB  LYS A 135      32.060  35.360  10.034  1.00 26.63     0.034 C 
BRANCH   2   3
ATOM      3  CG  LYS A 135      30.878  35.690   9.159  1.00 29.45     0.005 C 
BRANCH   3   4
ATOM      4  CD  LYS A 135      30.362  34.441   8.462  1.00 32.00     0.041 C 
BRANCH   4   5
ATOM      5  CE  LYS A 135      28.848  34.469   8.371  1.00 34.25     0.338 C 
ATOM      6  NZ  LYS A 135      28.228  33.764   9.527  1.00 35.99     0.618 N 
ENDBRANCH   4   5
ENDBRANCH   3   4
ENDBRANCH   2   3
ENDBRANCH   1   2
END_RES LYS A 135
BEGIN_RES TYR A 136
REMARK  2 active torsions:
REMARK  status: ('A' for Active; 'I' for Inactive)
REMARK    5  A    between atoms: CA   and  CB  
REMARK    6  A    between atoms: CB   and  CG  
ROOT
ATOM      7  CA  TYR A 136      36.583  36.399   8.994  1.00 26.14     0.191 C 
ENDROOT
BRANCH   7   8
ATOM      8  CB  TYR A 136      37.367  36.835  10.240  1.00 28.16     0.060 C 
BRANCH   8   9
ATOM      9  CG  TYR A 136      37.186  38.299  10.556  1.00 31.88    -0.020 A 
ATOM     10  CD2 TYR A 136      36.622  39.176   9.627  1.00 32.67    -0.002 A 
ATOM     11  CE2 TYR A 136      36.459  40.534   9.930  1.00 33.89     0.027 A 
ATOM     12  CZ  TYR A 136      36.866  41.021  11.175  1.00 34.34     0.131 A 
ATOM     13  OH  TYR A 136      36.709  42.361  11.500  1.00 35.14    -0.190 OA
ATOM     14  CE1 TYR A 136      37.430  40.164  12.110  1.00 35.01     0.027 A 
ATOM     15  CD1 TYR A 136      37.592  38.815  11.794  1.00 33.57    -0.002 A 
ENDBRANCH   8   9
ENDBRANCH   7   8
END_RES TYR A 136
BEGIN_RES ASN A 133
REMARK  2 active torsions:
REMARK  status: ('A' for Active; 'I' for Inactive)
REMARK    7  A    between atoms: CA   and  CB  
REMARK    8  A    between atoms: CB   and  CG  
ROOT
ATOM     16  CA  ASN A 133      31.225  30.257  11.749  1.00 18.15     0.196 C 
ENDROOT
BRANCH  16  17
ATOM     17  CB  ASN A 133      30.092  31.240  11.460  1.00 18.27     0.126 C 
BRANCH  17  18
ATOM     18  CG  ASN A 133      28.750  30.583  11.358  1.00 18.94     0.276 C 
ATOM     19  OD1 ASN A 133      28.575  29.598  10.638  1.00 18.09    -0.269 OA
ATOM     20  ND2 ASN A 133      27.777  31.129  12.085  1.00 18.93    -0.107 N 
ENDBRANCH  17  18
ENDBRANCH  16  17
END_RES ASN A 133
