REMARK VINA RESULT:    -3.300      9.454     13.636
REMARK INTER + INTRA:          -6.926
REMARK INTER:                  -3.797
REMARK INTRA:                  -3.129
REMARK UNBOUND:                -3.239
REMARK SMILES Cc1cn(Cc2ccc(Br)cc2)nn1
REMARK SMILES IDX 5 1 4 2 1 3 2 4 3 5 14 6 13 7 6 8 7 9 12 10 8 11 11 12 9 13
REMARK SMILES IDX 10 14
REMARK H PARENT
REMARK Flexibility Score: inf
ROOT
ATOM      1  C   UNL     1      23.689  38.146  -1.656  1.00  0.00     0.181 C 
ENDROOT
BRANCH   1   2
ATOM      2  N   UNL     1      25.007  38.207  -2.298  1.00  0.00    -0.248 N 
ATOM      3  C   UNL     1      28.680  38.009  -2.485  1.00  0.00     0.070 C 
ATOM      4  C   UNL     1      27.195  38.152  -2.683  1.00  0.00     0.080 A 
ATOM      5  C   UNL     1      26.208  37.998  -1.727  1.00  0.00     0.134 A 
ATOM      6  N   UNL     1      26.541  38.456  -3.816  1.00  0.00    -0.136 NA
ATOM      7  N   UNL     1      25.249  38.481  -3.558  1.00  0.00    -0.067 NA
ENDBRANCH   1   2
BRANCH   1   8
ATOM      8  C   UNL     1      23.282  36.732  -1.503  1.00  0.00    -0.026 A 
ATOM      9  C   UNL     1      23.353  35.891  -2.586  1.00  0.00     0.007 A 
ATOM     10  C   UNL     1      22.836  36.244  -0.298  1.00  0.00     0.007 A 
ATOM     11  C   UNL     1      22.969  34.581  -2.416  1.00  0.00     0.016 A 
ATOM     12  C   UNL     1      22.452  34.910  -0.153  1.00  0.00     0.016 A 
ATOM     13  C   UNL     1      22.516  34.053  -1.228  1.00  0.00     0.017 A 
ATOM     14  Br  UNL     1      21.986  32.246  -0.993  1.00  0.00    -0.051 Br
ENDBRANCH   1   8
TORSDOF 2
BEGIN_RES LYS A 135
REMARK  4 active torsions:
REMARK  status: ('A' for Active; 'I' for Inactive)
REMARK    1  A    between atoms: CA   and  CB  
REMARK    2  A    between atoms: CB   and  CG  
REMARK    3  A    between atoms: CG   and  CD  
REMARK    4  A    between atoms: CD   and  CE  
ROOT
ATOM      1  CA  LYS A 135      33.193  34.663   9.290  1.00 25.02     0.186 C 
ENDROOT
BRANCH   1   2
ATOM      2  CB  LYS A 135      32.060  35.360  10.034  1.00 26.63     0.034 C 
BRANCH   2   3
ATOM      3  CG  LYS A 135      30.833  35.585   9.189  1.00 29.45     0.005 C 
BRANCH   3   4
ATOM      4  CD  LYS A 135      30.281  34.261   8.681  1.00 32.00     0.041 C 
BRANCH   4   5
ATOM      5  CE  LYS A 135      28.791  34.169   8.946  1.00 34.25     0.338 C 
ATOM      6  NZ  LYS A 135      28.015  34.909   7.913  1.00 35.99     0.618 N 
ENDBRANCH   4   5
ENDBRANCH   3   4
ENDBRANCH   2   3
ENDBRANCH   1   2
END_RES LYS A 135
BEGIN_RES TYR A 136
REMARK  2 active torsions:
REMARK  status: ('A' for Active; 'I' for Inactive)
REMARK    5  A    between atoms: CA   and  CB  
REMARK    6  A    between atoms: CB   and  CG  
ROOT
ATOM      7  CA  TYR A 136      36.583  36.399   8.994  1.00 26.14     0.191 C 
ENDROOT
BRANCH   7   8
ATOM      8  CB  TYR A 136      37.367  36.835  10.240  1.00 28.16     0.060 C 
BRANCH   8   9
ATOM      9  CG  TYR A 136      37.189  38.300  10.554  1.00 31.88    -0.020 A 
ATOM     10  CD2 TYR A 136      36.484  39.144   9.693  1.00 32.67    -0.002 A 
ATOM     11  CE2 TYR A 136      36.326  40.504   9.993  1.00 33.89     0.027 A 
ATOM     12  CZ  TYR A 136      36.879  41.024  11.166  1.00 34.34     0.131 A 
ATOM     13  OH  TYR A 136      36.728  42.366  11.487  1.00 35.14    -0.190 OA
ATOM     14  CE1 TYR A 136      37.583  40.200  12.032  1.00 35.01     0.027 A 
ATOM     15  CD1 TYR A 136      37.739  38.849  11.719  1.00 33.57    -0.002 A 
ENDBRANCH   8   9
ENDBRANCH   7   8
END_RES TYR A 136
BEGIN_RES ASN A 133
REMARK  2 active torsions:
REMARK  status: ('A' for Active; 'I' for Inactive)
REMARK    7  A    between atoms: CA   and  CB  
REMARK    8  A    between atoms: CB   and  CG  
ROOT
ATOM     16  CA  ASN A 133      31.225  30.257  11.749  1.00 18.15     0.196 C 
ENDROOT
BRANCH  16  17
ATOM     17  CB  ASN A 133      30.092  31.240  11.460  1.00 18.27     0.126 C 
BRANCH  17  18
ATOM     18  CG  ASN A 133      28.752  30.582  11.349  1.00 18.94     0.276 C 
ATOM     19  OD1 ASN A 133      28.577  29.609  10.613  1.00 18.09    -0.269 OA
ATOM     20  ND2 ASN A 133      27.778  31.114  12.088  1.00 18.93    -0.107 N 
ENDBRANCH  17  18
ENDBRANCH  16  17
END_RES ASN A 133
