REMARK VINA RESULT:    -3.562      8.061      8.606
REMARK INTER + INTRA:          -7.231
REMARK INTER:                  -4.014
REMARK INTRA:                  -3.217
REMARK UNBOUND:                -3.148
REMARK SMILES Cc1cn(-c2ccc(S(N)(=O)=O)cc2)nn1
REMARK SMILES IDX 5 1 6 2 7 3 8 4 13 5 14 6 4 7 1 8 2 9 3 10 16 11 15 12 9 13
REMARK SMILES IDX 11 14 12 15 10 16
REMARK H PARENT 10 17 10 18
REMARK Flexibility Score: inf
ROOT
ATOM      1  C   UNL     1      34.268  28.307  23.179  1.00  0.00     0.066 A 
ATOM      2  C   UNL     1      33.332  27.307  23.339  1.00  0.00     0.030 A 
ATOM      3  C   UNL     1      32.078  27.370  22.719  1.00  0.00     0.024 A 
ATOM      4  C   UNL     1      31.745  28.446  21.926  1.00  0.00     0.082 A 
ATOM      5  C   UNL     1      32.668  29.442  21.762  1.00  0.00     0.024 A 
ATOM      6  C   UNL     1      33.894  29.378  22.369  1.00  0.00     0.030 A 
ENDROOT
BRANCH   1   7
ATOM      7  N   UNL     1      35.549  28.293  23.783  1.00  0.00    -0.220 N 
ATOM      8  C   UNL     1      39.074  29.166  23.803  1.00  0.00     0.070 C 
ATOM      9  C   UNL     1      37.726  28.666  24.094  1.00  0.00     0.080 A 
ATOM     10  C   UNL     1      36.636  28.865  23.246  1.00  0.00     0.140 A 
ATOM     11  N   UNL     1      37.232  27.970  25.125  1.00  0.00    -0.135 NA
ATOM     12  N   UNL     1      35.927  27.755  24.924  1.00  0.00    -0.062 NA
ENDBRANCH   1   7
BRANCH   4  13
ATOM     13  S   UNL     1      30.179  28.524  21.152  1.00  0.00     0.238 S 
ATOM     14  O   UNL     1      29.118  28.752  22.193  1.00  0.00    -0.207 OA
ATOM     15  O   UNL     1      30.124  29.627  20.156  1.00  0.00    -0.207 OA
BRANCH  13  16
ATOM     16  N   UNL     1      29.844  26.994  20.420  1.00  0.00    -0.225 NA
ATOM     17  H   UNL     1      29.342  27.151  19.514  1.00  0.00     0.137 HD
ATOM     18  H   UNL     1      30.788  26.566  20.204  1.00  0.00     0.137 HD
ENDBRANCH  13  16
ENDBRANCH   4  13
TORSDOF 3
BEGIN_RES LYS A 135
REMARK  4 active torsions:
REMARK  status: ('A' for Active; 'I' for Inactive)
REMARK    1  A    between atoms: CA   and  CB  
REMARK    2  A    between atoms: CB   and  CG  
REMARK    3  A    between atoms: CG   and  CD  
REMARK    4  A    between atoms: CD   and  CE  
ROOT
ATOM      1  CA  LYS A 135      33.193  34.663   9.290  1.00 25.02     0.186 C 
ENDROOT
BRANCH   1   2
ATOM      2  CB  LYS A 135      32.060  35.360  10.034  1.00 26.63     0.034 C 
BRANCH   2   3
ATOM      3  CG  LYS A 135      30.705  34.755   9.772  1.00 29.45     0.005 C 
BRANCH   3   4
ATOM      4  CD  LYS A 135      30.462  34.610   8.277  1.00 32.00     0.041 C 
BRANCH   4   5
ATOM      5  CE  LYS A 135      29.003  34.861   7.949  1.00 34.25     0.338 C 
ATOM      6  NZ  LYS A 135      28.859  35.544   6.633  1.00 35.99     0.618 N 
ENDBRANCH   4   5
ENDBRANCH   3   4
ENDBRANCH   2   3
ENDBRANCH   1   2
END_RES LYS A 135
BEGIN_RES TYR A 136
REMARK  2 active torsions:
REMARK  status: ('A' for Active; 'I' for Inactive)
REMARK    5  A    between atoms: CA   and  CB  
REMARK    6  A    between atoms: CB   and  CG  
ROOT
ATOM      7  CA  TYR A 136      36.583  36.399   8.994  1.00 26.14     0.191 C 
ENDROOT
BRANCH   7   8
ATOM      8  CB  TYR A 136      37.367  36.835  10.240  1.00 28.16     0.060 C 
BRANCH   8   9
ATOM      9  CG  TYR A 136      37.233  38.311  10.522  1.00 31.88    -0.020 A 
ATOM     10  CD2 TYR A 136      36.090  38.830  11.134  1.00 32.67    -0.002 A 
ATOM     11  CE2 TYR A 136      35.975  40.203  11.390  1.00 33.89     0.027 A 
ATOM     12  CZ  TYR A 136      37.014  41.065  11.031  1.00 34.34     0.131 A 
ATOM     13  OH  TYR A 136      36.925  42.427  11.282  1.00 35.14    -0.190 OA
ATOM     14  CE1 TYR A 136      38.156  40.567  10.422  1.00 35.01     0.027 A 
ATOM     15  CD1 TYR A 136      38.257  39.199  10.166  1.00 33.57    -0.002 A 
ENDBRANCH   8   9
ENDBRANCH   7   8
END_RES TYR A 136
BEGIN_RES ASN A 133
REMARK  2 active torsions:
REMARK  status: ('A' for Active; 'I' for Inactive)
REMARK    7  A    between atoms: CA   and  CB  
REMARK    8  A    between atoms: CB   and  CG  
ROOT
ATOM     16  CA  ASN A 133      31.225  30.257  11.749  1.00 18.15     0.196 C 
ENDROOT
BRANCH  16  17
ATOM     17  CB  ASN A 133      30.092  31.240  11.460  1.00 18.27     0.126 C 
BRANCH  17  18
ATOM     18  CG  ASN A 133      28.751  30.583  11.354  1.00 18.94     0.276 C 
ATOM     19  OD1 ASN A 133      28.578  29.597  10.635  1.00 18.09    -0.269 OA
ATOM     20  ND2 ASN A 133      27.775  31.130  12.079  1.00 18.93    -0.107 N 
ENDBRANCH  17  18
ENDBRANCH  16  17
END_RES ASN A 133
