REMARK VINA RESULT:    -5.065      5.444      9.778
REMARK INTER + INTRA:          -9.879
REMARK INTER:                  -6.159
REMARK INTRA:                  -3.720
REMARK UNBOUND:                -3.778
REMARK SMILES Cc1cn(-c2ccc(-c3c4ccc(=O)cc-4oc4cc(O)ccc34)c(C(=O)[O-])c2)nn1
REMARK SMILES IDX 9 1 24 2 23 3 22 4 20 5 19 6 18 7 17 8 16 9 15 10 13 11
REMARK SMILES IDX 14 12 12 13 11 14 10 15 8 16 5 17 29 18 6 19 25 20 7 21 4 22
REMARK SMILES IDX 1 23 2 24 3 25 31 26 30 27 26 28 27 29 28 30 21 31
REMARK H PARENT 21 32
REMARK Flexibility Score: inf
ROOT
ATOM      1  C   UNL     1      34.798  40.599   6.306  1.00  0.00     0.004 A 
ATOM      2  C   UNL     1      35.191  41.875   6.647  1.00  0.00     0.026 A 
ATOM      3  C   UNL     1      34.278  42.749   7.197  1.00  0.00     0.016 A 
ATOM      4  C   UNL     1      34.629  44.041   7.555  1.00  0.00     0.047 A 
ATOM      5  C   UNL     1      35.932  44.439   7.347  1.00  0.00     0.119 A 
ATOM      6  C   UNL     1      36.847  43.565   6.797  1.00  0.00     0.093 A 
ATOM      7  C   UNL     1      36.506  42.261   6.433  1.00  0.00     0.139 A 
ATOM      8  O   UNL     1      37.403  41.455   5.912  1.00  0.00    -0.456 OA
ATOM      9  C   UNL     1      37.131  40.239   5.559  1.00  0.00     0.139 A 
ATOM     10  C   UNL     1      38.043  39.368   5.012  1.00  0.00     0.099 A 
ATOM     11  C   UNL     1      37.631  38.099   4.678  1.00  0.00     0.182 A 
ATOM     12  O   UNL     1      38.470  37.311   4.179  1.00  0.00    -0.290 OA
ATOM     13  C   UNL     1      36.332  37.664   4.872  1.00  0.00     0.053 A 
ATOM     14  C   UNL     1      35.367  38.483   5.415  1.00  0.00     0.016 A 
ATOM     15  C   UNL     1      35.754  39.768   5.761  1.00  0.00     0.026 A 
ENDROOT
BRANCH   1  16
ATOM     16  C   UNL     1      33.425  40.204   6.534  1.00  0.00    -0.008 A 
ATOM     17  C   UNL     1      30.756  39.461   6.905  1.00  0.00     0.067 A 
ATOM     18  C   UNL     1      31.165  39.976   5.693  1.00  0.00     0.039 A 
ATOM     19  C   UNL     1      31.670  39.312   7.937  1.00  0.00     0.029 A 
ATOM     20  C   UNL     1      32.490  40.338   5.528  1.00  0.00     0.007 A 
ATOM     21  C   UNL     1      32.989  39.685   7.739  1.00  0.00     0.012 A 
BRANCH  17  22
ATOM     22  N   UNL     1      29.408  39.072   7.131  1.00  0.00    -0.220 N 
ATOM     23  C   UNL     1      26.658  37.966   9.315  1.00  0.00     0.070 C 
ATOM     24  C   UNL     1      27.576  38.402   8.222  1.00  0.00     0.080 A 
ATOM     25  C   UNL     1      28.911  38.722   8.354  1.00  0.00     0.140 A 
ATOM     26  N   UNL     1      27.302  38.569   6.915  1.00  0.00    -0.135 NA
ATOM     27  N   UNL     1      28.412  38.967   6.297  1.00  0.00    -0.062 NA
ENDBRANCH  17  22
BRANCH  20  28
ATOM     28  C   UNL     1      32.908  40.881   4.241  1.00  0.00     0.072 C 
ATOM     29  O   UNL     1      32.892  42.111   4.006  1.00  0.00    -0.545 OA
ATOM     30  O   UNL     1      33.345  40.046   3.222  1.00  0.00    -0.545 OA
ENDBRANCH  20  28
ENDBRANCH   1  16
BRANCH   5  31
ATOM     31  O   UNL     1      36.298  45.746   7.707  1.00  0.00    -0.508 OA
ATOM     32  H   UNL     1      35.610  46.372   8.100  1.00  0.00     0.293 HD
ENDBRANCH   5  31
TORSDOF 4
BEGIN_RES LYS A 135
REMARK  4 active torsions:
REMARK  status: ('A' for Active; 'I' for Inactive)
REMARK    1  A    between atoms: CA   and  CB  
REMARK    2  A    between atoms: CB   and  CG  
REMARK    3  A    between atoms: CG   and  CD  
REMARK    4  A    between atoms: CD   and  CE  
ROOT
ATOM      1  CA  LYS A 135      33.193  34.663   9.290  1.00 25.02     0.186 C 
ENDROOT
BRANCH   1   2
ATOM      2  CB  LYS A 135      32.060  35.360  10.034  1.00 26.63     0.034 C 
BRANCH   2   3
ATOM      3  CG  LYS A 135      30.872  35.678   9.162  1.00 29.45     0.005 C 
BRANCH   3   4
ATOM      4  CD  LYS A 135      30.202  34.400   8.683  1.00 32.00     0.041 C 
BRANCH   4   5
ATOM      5  CE  LYS A 135      28.854  34.707   8.059  1.00 34.25     0.338 C 
ATOM      6  NZ  LYS A 135      29.013  35.443   6.774  1.00 35.99     0.618 N 
ENDBRANCH   4   5
ENDBRANCH   3   4
ENDBRANCH   2   3
ENDBRANCH   1   2
END_RES LYS A 135
BEGIN_RES TYR A 136
REMARK  2 active torsions:
REMARK  status: ('A' for Active; 'I' for Inactive)
REMARK    5  A    between atoms: CA   and  CB  
REMARK    6  A    between atoms: CB   and  CG  
ROOT
ATOM      7  CA  TYR A 136      36.583  36.399   8.994  1.00 26.14     0.191 C 
ENDROOT
BRANCH   7   8
ATOM      8  CB  TYR A 136      37.367  36.835  10.240  1.00 28.16     0.060 C 
BRANCH   8   9
ATOM      9  CG  TYR A 136      37.283  38.321  10.488  1.00 31.88    -0.020 A 
ATOM     10  CD2 TYR A 136      36.797  39.191   9.509  1.00 32.67    -0.002 A 
ATOM     11  CE2 TYR A 136      36.725  40.570   9.748  1.00 33.89     0.027 A 
ATOM     12  CZ  TYR A 136      37.144  41.084  10.978  1.00 34.34     0.131 A 
ATOM     13  OH  TYR A 136      37.075  42.445  11.240  1.00 35.14    -0.190 OA
ATOM     14  CE1 TYR A 136      37.630  40.234  11.961  1.00 35.01     0.027 A 
ATOM     15  CD1 TYR A 136      37.703  38.863  11.709  1.00 33.57    -0.002 A 
ENDBRANCH   8   9
ENDBRANCH   7   8
END_RES TYR A 136
BEGIN_RES ASN A 133
REMARK  2 active torsions:
REMARK  status: ('A' for Active; 'I' for Inactive)
REMARK    7  A    between atoms: CA   and  CB  
REMARK    8  A    between atoms: CB   and  CG  
ROOT
ATOM     16  CA  ASN A 133      31.225  30.257  11.749  1.00 18.15     0.196 C 
ENDROOT
BRANCH  16  17
ATOM     17  CB  ASN A 133      30.092  31.240  11.460  1.00 18.27     0.126 C 
BRANCH  17  18
ATOM     18  CG  ASN A 133      28.755  30.579  11.328  1.00 18.94     0.276 C 
ATOM     19  OD1 ASN A 133      28.587  29.623  10.569  1.00 18.09    -0.269 OA
ATOM     20  ND2 ASN A 133      27.776  31.090  12.074  1.00 18.93    -0.107 N 
ENDBRANCH  17  18
ENDBRANCH  16  17
END_RES ASN A 133
