REMARK VINA RESULT:    -3.056      8.568     14.806
REMARK INTER + INTRA:          -6.652
REMARK INTER:                  -3.353
REMARK INTRA:                  -3.299
REMARK UNBOUND:                -3.239
REMARK SMILES Cc1cn(Cc2ccsc2)nn1
REMARK SMILES IDX 5 1 4 2 1 3 2 4 3 5 12 6 11 7 6 8 7 9 10 10 8 11 9 12
REMARK H PARENT
REMARK Flexibility Score: inf
ROOT
ATOM      1  C   UNL     1      28.948  30.716  19.711  1.00  0.00     0.182 C 
ENDROOT
BRANCH   1   2
ATOM      2  N   UNL     1      29.399  29.437  20.190  1.00  0.00    -0.248 N 
ATOM      3  C   UNL     1      31.647  26.909  21.542  1.00  0.00     0.070 C 
ATOM      4  C   UNL     1      30.588  27.792  20.988  1.00  0.00     0.080 A 
ATOM      5  C   UNL     1      30.612  29.105  20.642  1.00  0.00     0.134 A 
ATOM      6  N   UNL     1      29.345  27.349  20.735  1.00  0.00    -0.136 NA
ATOM      7  N   UNL     1      28.659  28.354  20.260  1.00  0.00    -0.067 NA
ENDBRANCH   1   2
BRANCH   1   8
ATOM      8  C   UNL     1      29.175  30.849  18.212  1.00  0.00    -0.016 A 
ATOM      9  C   UNL     1      30.250  31.342  17.631  1.00  0.00     0.017 A 
ATOM     10  C   UNL     1      28.143  30.411  17.310  1.00  0.00     0.070 A 
ATOM     11  C   UNL     1      30.372  31.428  16.265  1.00  0.00     0.065 A 
ATOM     12  S   UNL     1      28.758  30.721  15.743  1.00  0.00    -0.152 S 
ENDBRANCH   1   8
TORSDOF 2
BEGIN_RES LYS A 135
REMARK  4 active torsions:
REMARK  status: ('A' for Active; 'I' for Inactive)
REMARK    1  A    between atoms: CA   and  CB  
REMARK    2  A    between atoms: CB   and  CG  
REMARK    3  A    between atoms: CG   and  CD  
REMARK    4  A    between atoms: CD   and  CE  
ROOT
ATOM      1  CA  LYS A 135      33.193  34.663   9.290  1.00 25.02     0.186 C 
ENDROOT
BRANCH   1   2
ATOM      2  CB  LYS A 135      32.060  35.360  10.034  1.00 26.63     0.034 C 
BRANCH   2   3
ATOM      3  CG  LYS A 135      30.845  35.614   9.180  1.00 29.45     0.005 C 
BRANCH   3   4
ATOM      4  CD  LYS A 135      30.259  34.304   8.676  1.00 32.00     0.041 C 
BRANCH   4   5
ATOM      5  CE  LYS A 135      28.756  34.421   8.511  1.00 34.25     0.338 C 
ATOM      6  NZ  LYS A 135      28.039  33.726   9.615  1.00 35.99     0.618 N 
ENDBRANCH   4   5
ENDBRANCH   3   4
ENDBRANCH   2   3
ENDBRANCH   1   2
END_RES LYS A 135
BEGIN_RES TYR A 136
REMARK  2 active torsions:
REMARK  status: ('A' for Active; 'I' for Inactive)
REMARK    5  A    between atoms: CA   and  CB  
REMARK    6  A    between atoms: CB   and  CG  
ROOT
ATOM      7  CA  TYR A 136      36.583  36.399   8.994  1.00 26.14     0.191 C 
ENDROOT
BRANCH   7   8
ATOM      8  CB  TYR A 136      37.367  36.835  10.240  1.00 28.16     0.060 C 
BRANCH   8   9
ATOM      9  CG  TYR A 136      37.192  38.301  10.552  1.00 31.88    -0.020 A 
ATOM     10  CD2 TYR A 136      36.533  39.155   9.665  1.00 32.67    -0.002 A 
ATOM     11  CE2 TYR A 136      36.377  40.516   9.964  1.00 33.89     0.027 A 
ATOM     12  CZ  TYR A 136      36.886  41.026  11.160  1.00 34.34     0.131 A 
ATOM     13  OH  TYR A 136      36.738  42.369  11.480  1.00 35.14    -0.190 OA
ATOM     14  CE1 TYR A 136      37.545  40.192  12.052  1.00 35.01     0.027 A 
ATOM     15  CD1 TYR A 136      37.700  38.840  11.741  1.00 33.57    -0.002 A 
ENDBRANCH   8   9
ENDBRANCH   7   8
END_RES TYR A 136
BEGIN_RES ASN A 133
REMARK  2 active torsions:
REMARK  status: ('A' for Active; 'I' for Inactive)
REMARK    7  A    between atoms: CA   and  CB  
REMARK    8  A    between atoms: CB   and  CG  
ROOT
ATOM     16  CA  ASN A 133      31.225  30.257  11.749  1.00 18.15     0.196 C 
ENDROOT
BRANCH  16  17
ATOM     17  CB  ASN A 133      30.092  31.240  11.460  1.00 18.27     0.126 C 
BRANCH  17  18
ATOM     18  CG  ASN A 133      28.750  30.584  11.363  1.00 18.94     0.276 C 
ATOM     19  OD1 ASN A 133      28.567  29.609  10.632  1.00 18.09    -0.269 OA
ATOM     20  ND2 ASN A 133      27.784  31.120  12.109  1.00 18.93    -0.107 N 
ENDBRANCH  17  18
ENDBRANCH  16  17
END_RES ASN A 133
