REMARK VINA RESULT:    -3.024      8.232     10.122
REMARK INTER + INTRA:          -6.995
REMARK INTER:                  -3.903
REMARK INTRA:                  -3.092
REMARK UNBOUND:                -3.264
REMARK SMILES Cc1cn(CCNS(C)(=O)=O)nn1
REMARK SMILES IDX 6 1 5 2 4 3 1 4 2 5 3 6 13 7 12 8 7 9 8 11 10 12 11 13 9 14
REMARK H PARENT 7 10
REMARK Flexibility Score: inf
ROOT
ATOM      1  C   UNL     1      34.447  39.415   5.629  1.00  0.00     0.122 C 
ENDROOT
BRANCH   1   2
ATOM      2  C   UNL     1      35.501  38.315   5.463  1.00  0.00     0.162 C 
BRANCH   2   3
ATOM      3  N   UNL     1      35.847  38.290   4.035  1.00  0.00    -0.251 N 
ATOM      4  C   UNL     1      38.022  37.635   1.171  1.00  0.00     0.070 C 
ATOM      5  C   UNL     1      36.944  37.996   2.137  1.00  0.00     0.080 A 
ATOM      6  C   UNL     1      37.003  37.861   3.505  1.00  0.00     0.134 A 
ATOM      7  N   UNL     1      35.731  38.513   1.881  1.00  0.00    -0.136 NA
ATOM      8  N   UNL     1      35.094  38.680   3.024  1.00  0.00    -0.067 NA
ENDBRANCH   2   3
ENDBRANCH   1   2
BRANCH   1   9
ATOM      9  N   UNL     1      33.678  39.136   6.807  1.00  0.00    -0.214 NA
ATOM     10  H   UNL     1      34.188  39.351   7.671  1.00  0.00     0.141 HD
BRANCH   9  11
ATOM     11  S   UNL     1      32.145  39.903   6.729  1.00  0.00     0.208 S 
ATOM     12  O   UNL     1      31.620  39.890   5.325  1.00  0.00    -0.213 OA
ATOM     13  O   UNL     1      32.311  41.346   7.173  1.00  0.00    -0.213 OA
ATOM     14  C   UNL     1      31.041  39.118   7.848  1.00  0.00     0.176 C 
ENDBRANCH   9  11
ENDBRANCH   1   9
TORSDOF 4
BEGIN_RES LYS A 135
REMARK  4 active torsions:
REMARK  status: ('A' for Active; 'I' for Inactive)
REMARK    1  A    between atoms: CA   and  CB  
REMARK    2  A    between atoms: CB   and  CG  
REMARK    3  A    between atoms: CG   and  CD  
REMARK    4  A    between atoms: CD   and  CE  
ROOT
ATOM      1  CA  LYS A 135      33.193  34.663   9.290  1.00 25.02     0.186 C 
ENDROOT
BRANCH   1   2
ATOM      2  CB  LYS A 135      32.060  35.360  10.034  1.00 26.63     0.034 C 
BRANCH   2   3
ATOM      3  CG  LYS A 135      30.829  35.577   9.191  1.00 29.45     0.005 C 
BRANCH   3   4
ATOM      4  CD  LYS A 135      30.161  34.250   8.867  1.00 32.00     0.041 C 
BRANCH   4   5
ATOM      5  CE  LYS A 135      28.669  34.440   8.668  1.00 34.25     0.338 C 
ATOM      6  NZ  LYS A 135      27.894  33.760   9.742  1.00 35.99     0.618 N 
ENDBRANCH   4   5
ENDBRANCH   3   4
ENDBRANCH   2   3
ENDBRANCH   1   2
END_RES LYS A 135
BEGIN_RES TYR A 136
REMARK  2 active torsions:
REMARK  status: ('A' for Active; 'I' for Inactive)
REMARK    5  A    between atoms: CA   and  CB  
REMARK    6  A    between atoms: CB   and  CG  
ROOT
ATOM      7  CA  TYR A 136      36.583  36.399   8.994  1.00 26.14     0.191 C 
ENDROOT
BRANCH   7   8
ATOM      8  CB  TYR A 136      37.367  36.835  10.240  1.00 28.16     0.060 C 
BRANCH   8   9
ATOM      9  CG  TYR A 136      36.755  38.035  10.920  1.00 31.88    -0.020 A 
ATOM     10  CD2 TYR A 136      36.363  37.985  12.260  1.00 32.67    -0.002 A 
ATOM     11  CE2 TYR A 136      35.794  39.104  12.882  1.00 33.89     0.027 A 
ATOM     12  CZ  TYR A 136      35.615  40.285  12.157  1.00 34.34     0.131 A 
ATOM     13  OH  TYR A 136      35.060  41.408  12.754  1.00 35.14    -0.190 OA
ATOM     14  CE1 TYR A 136      35.997  40.352  10.825  1.00 35.01     0.027 A 
ATOM     15  CD1 TYR A 136      36.557  39.228  10.214  1.00 33.57    -0.002 A 
ENDBRANCH   8   9
ENDBRANCH   7   8
END_RES TYR A 136
BEGIN_RES ASN A 133
REMARK  2 active torsions:
REMARK  status: ('A' for Active; 'I' for Inactive)
REMARK    7  A    between atoms: CA   and  CB  
REMARK    8  A    between atoms: CB   and  CG  
ROOT
ATOM     16  CA  ASN A 133      31.225  30.257  11.749  1.00 18.15     0.196 C 
ENDROOT
BRANCH  16  17
ATOM     17  CB  ASN A 133      30.092  31.240  11.460  1.00 18.27     0.126 C 
BRANCH  17  18
ATOM     18  CG  ASN A 133      28.757  30.578  11.315  1.00 18.94     0.276 C 
ATOM     19  OD1 ASN A 133      28.595  29.628  10.547  1.00 18.09    -0.269 OA
ATOM     20  ND2 ASN A 133      27.773  31.080  12.061  1.00 18.93    -0.107 N 
ENDBRANCH  17  18
ENDBRANCH  16  17
END_RES ASN A 133
