REMARK VINA RESULT:    -4.115      8.795     14.176
REMARK INTER + INTRA:          -7.638
REMARK INTER:                  -4.763
REMARK INTRA:                  -2.876
REMARK UNBOUND:                -3.283
REMARK SMILES Cc1cn(C23CC4CC(CC(C4)C2)C3)nn1
REMARK SMILES IDX 5 1 14 2 9 3 8 4 7 5 12 6 11 7 10 8 13 9 6 10 4 11 1 12 2 13
REMARK SMILES IDX 3 14 16 15 15 16
REMARK H PARENT
REMARK Flexibility Score: inf
ROOT
ATOM      1  C   UNL     1      22.282  34.487  -0.877  1.00  0.00     0.065 C 
ATOM      2  C   UNL     1      23.240  34.652  -2.051  1.00  0.00     0.034 C 
ATOM      3  C   UNL     1      23.089  36.068  -2.598  1.00  0.00    -0.008 C 
ATOM      4  C   UNL     1      23.440  37.008  -1.479  1.00  0.00     0.007 C 
ATOM      5  C   UNL     1      22.428  36.866  -0.375  1.00  0.00    -0.008 C 
ATOM      6  C   UNL     1      21.023  37.060  -0.845  1.00  0.00     0.007 C 
ATOM      7  C   UNL     1      20.699  36.037  -1.907  1.00  0.00    -0.008 C 
ATOM      8  C   UNL     1      21.676  36.272  -3.060  1.00  0.00     0.007 C 
ATOM      9  C   UNL     1      20.888  34.633  -1.441  1.00  0.00     0.034 C 
ATOM     10  C   UNL     1      22.574  35.483   0.215  1.00  0.00     0.034 C 
ENDROOT
BRANCH   1  11
ATOM     11  N   UNL     1      22.416  33.114  -0.410  1.00  0.00    -0.246 N 
ATOM     12  C   UNL     1      22.106  29.546  -0.962  1.00  0.00     0.070 C 
ATOM     13  C   UNL     1      22.330  30.918  -0.468  1.00  0.00     0.080 A 
ATOM     14  C   UNL     1      22.096  32.062  -1.185  1.00  0.00     0.134 A 
ATOM     15  N   UNL     1      22.791  31.335   0.738  1.00  0.00    -0.136 NA
ATOM     16  N   UNL     1      22.831  32.659   0.742  1.00  0.00    -0.067 NA
ENDBRANCH   1  11
TORSDOF 1
BEGIN_RES LYS A 135
REMARK  4 active torsions:
REMARK  status: ('A' for Active; 'I' for Inactive)
REMARK    1  A    between atoms: CA   and  CB  
REMARK    2  A    between atoms: CB   and  CG  
REMARK    3  A    between atoms: CG   and  CD  
REMARK    4  A    between atoms: CD   and  CE  
ROOT
ATOM      1  CA  LYS A 135      33.193  34.663   9.290  1.00 25.02     0.186 C 
ENDROOT
BRANCH   1   2
ATOM      2  CB  LYS A 135      32.060  35.360  10.034  1.00 26.63     0.034 C 
BRANCH   2   3
ATOM      3  CG  LYS A 135      30.787  35.462   9.234  1.00 29.45     0.005 C 
BRANCH   3   4
ATOM      4  CD  LYS A 135      30.086  34.115   9.166  1.00 32.00     0.041 C 
BRANCH   4   5
ATOM      5  CE  LYS A 135      28.624  34.292   8.801  1.00 34.25     0.338 C 
ATOM      6  NZ  LYS A 135      27.741  33.574   9.760  1.00 35.99     0.618 N 
ENDBRANCH   4   5
ENDBRANCH   3   4
ENDBRANCH   2   3
ENDBRANCH   1   2
END_RES LYS A 135
BEGIN_RES TYR A 136
REMARK  2 active torsions:
REMARK  status: ('A' for Active; 'I' for Inactive)
REMARK    5  A    between atoms: CA   and  CB  
REMARK    6  A    between atoms: CB   and  CG  
ROOT
ATOM      7  CA  TYR A 136      36.583  36.399   8.994  1.00 26.14     0.191 C 
ENDROOT
BRANCH   7   8
ATOM      8  CB  TYR A 136      37.367  36.835  10.240  1.00 28.16     0.060 C 
BRANCH   8   9
ATOM      9  CG  TYR A 136      37.226  38.310  10.528  1.00 31.88    -0.020 A 
ATOM     10  CD2 TYR A 136      38.011  39.254   9.862  1.00 32.67    -0.002 A 
ATOM     11  CE2 TYR A 136      37.873  40.622  10.138  1.00 33.89     0.027 A 
ATOM     12  CZ  TYR A 136      36.942  41.047  11.089  1.00 34.34     0.131 A 
ATOM     13  OH  TYR A 136      36.784  42.397  11.373  1.00 35.14    -0.190 OA
ATOM     14  CE1 TYR A 136      36.156  40.123  11.760  1.00 35.01     0.027 A 
ATOM     15  CD1 TYR A 136      36.306  38.763  11.481  1.00 33.57    -0.002 A 
ENDBRANCH   8   9
ENDBRANCH   7   8
END_RES TYR A 136
BEGIN_RES ASN A 133
REMARK  2 active torsions:
REMARK  status: ('A' for Active; 'I' for Inactive)
REMARK    7  A    between atoms: CA   and  CB  
REMARK    8  A    between atoms: CB   and  CG  
ROOT
ATOM     16  CA  ASN A 133      31.225  30.257  11.749  1.00 18.15     0.196 C 
ENDROOT
BRANCH  16  17
ATOM     17  CB  ASN A 133      30.092  31.240  11.460  1.00 18.27     0.126 C 
BRANCH  17  18
ATOM     18  CG  ASN A 133      28.747  30.586  11.381  1.00 18.94     0.276 C 
ATOM     19  OD1 ASN A 133      27.811  30.964  12.087  1.00 18.09    -0.269 OA
ATOM     20  ND2 ASN A 133      28.637  29.584  10.509  1.00 18.93    -0.107 N 
ENDBRANCH  17  18
ENDBRANCH  16  17
END_RES ASN A 133
