REMARK VINA RESULT:   -10.014      7.197      9.657
REMARK INTER + INTRA:          -6.671
REMARK INTER:                  -4.467
REMARK INTRA:                  -2.204
REMARK UNBOUND:                 6.270
REMARK SMILES Cc1cn(C2CCc3ccccc3NC2=O)nn1
REMARK SMILES IDX 14 1 15 2 16 3 5 5 4 6 1 7 2 8 3 9 18 10 17 11 6 12 13 14
REMARK SMILES IDX 8 15 12 16 9 17 11 18 10 19 7 20
REMARK H PARENT 14 4
REMARK Flexibility Score: 90.00
ROOT
ATOM      1  N   UNL     1      38.106  36.925   2.949  1.00  0.00    -0.324 N 
ATOM      2  C   UNL     1      37.235  37.914   2.430  1.00  0.00     0.249 C 
ATOM      3  O   UNL     1      36.198  37.442   1.895  1.00  0.00    -0.272 OA
ATOM      4  H   UNL     1      37.955  35.927   2.672  1.00  0.00     0.170 HD
ENDROOT
BRANCH   2   5
ATOM      5  C   UNL     1      37.353  39.379   2.418  1.00  0.00     0.198 C 
BRANCH   5   6
ATOM      6  N   UNL     1      37.028  39.835   1.078  1.00  0.00    -0.240 N 
ATOM      7  C   UNL     1      37.695  40.460  -2.482  1.00  0.00     0.070 C 
ATOM      8  C   UNL     1      37.201  40.307  -1.096  1.00  0.00     0.080 A 
ATOM      9  C   UNL     1      37.859  39.785  -0.006  1.00  0.00     0.135 A 
ATOM     10  N   UNL     1      35.986  40.663  -0.656  1.00  0.00    -0.136 NA
ATOM     11  N   UNL     1      35.889  40.376   0.651  1.00  0.00    -0.066 NA
ENDBRANCH   5   6
BRANCH   5  12
ATOM     12  C   UNL     1      38.741  39.861   2.740  1.00  0.00     0.042 CG0
ATOM     13  G   UNL     1      39.081  39.638   4.210  1.00  0.00     0.000 G0
ENDBRANCH   5  12
ENDBRANCH   2   5
BRANCH   1  14
ATOM     14  C   UNL     1      39.205  37.098   3.835  1.00  0.00     0.044 A 
ATOM     15  C   UNL     1      39.661  38.288   4.409  1.00  0.00    -0.024 A 
ATOM     16  C   UNL     1      39.871  35.931   4.138  1.00  0.00     0.026 A 
ATOM     17  C   UNL     1      40.752  38.248   5.250  1.00  0.00     0.006 A 
ATOM     18  C   UNL     1      40.966  35.858   4.975  1.00  0.00     0.002 A 
ATOM     19  C   UNL     1      41.399  37.066   5.535  1.00  0.00     0.000 A 
BRANCH  15  20
ATOM     20  C   UNL     1      39.084  39.648   4.213  1.00  0.00     0.040 CG0
ATOM     21  G   UNL     1      38.735  39.878   2.746  1.00  0.00     0.000 G0
ENDBRANCH  15  20
ENDBRANCH   1  14
TORSDOF 1
BEGIN_RES LYS A 135
REMARK  4 active torsions:
REMARK  status: ('A' for Active; 'I' for Inactive)
REMARK    1  A    between atoms: CA   and  CB  
REMARK    2  A    between atoms: CB   and  CG  
REMARK    3  A    between atoms: CG   and  CD  
REMARK    4  A    between atoms: CD   and  CE  
ROOT
ATOM      1  CA  LYS A 135      33.193  34.663   9.290  1.00 25.02     0.186 C 
ENDROOT
BRANCH   1   2
ATOM      2  CB  LYS A 135      32.060  35.360  10.034  1.00 26.63     0.034 C 
BRANCH   2   3
ATOM      3  CG  LYS A 135      30.700  34.781   9.740  1.00 29.45     0.005 C 
BRANCH   3   4
ATOM      4  CD  LYS A 135      30.149  35.342   8.438  1.00 32.00     0.041 C 
BRANCH   4   5
ATOM      5  CE  LYS A 135      28.836  34.670   8.082  1.00 34.25     0.338 C 
ATOM      6  NZ  LYS A 135      28.276  33.936   9.250  1.00 35.99     0.618 N 
ENDBRANCH   4   5
ENDBRANCH   3   4
ENDBRANCH   2   3
ENDBRANCH   1   2
END_RES LYS A 135
BEGIN_RES TYR A 136
REMARK  2 active torsions:
REMARK  status: ('A' for Active; 'I' for Inactive)
REMARK    5  A    between atoms: CA   and  CB  
REMARK    6  A    between atoms: CB   and  CG  
ROOT
ATOM      7  CA  TYR A 136      36.583  36.399   8.994  1.00 26.14     0.191 C 
ENDROOT
BRANCH   7   8
ATOM      8  CB  TYR A 136      37.367  36.835  10.240  1.00 28.16     0.060 C 
BRANCH   8   9
ATOM      9  CG  TYR A 136      36.971  38.208  10.724  1.00 31.88    -0.020 A 
ATOM     10  CD2 TYR A 136      36.375  38.391  11.973  1.00 32.67    -0.002 A 
ATOM     11  CE2 TYR A 136      36.009  39.671  12.413  1.00 33.89     0.027 A 
ATOM     12  CZ  TYR A 136      36.242  40.778  11.593  1.00 34.34     0.131 A 
ATOM     13  OH  TYR A 136      35.894  42.055  12.010  1.00 35.14    -0.190 OA
ATOM     14  CE1 TYR A 136      36.831  40.615  10.348  1.00 35.01     0.027 A 
ATOM     15  CD1 TYR A 136      37.186  39.335   9.919  1.00 33.57    -0.002 A 
ENDBRANCH   8   9
ENDBRANCH   7   8
END_RES TYR A 136
BEGIN_RES ASN A 133
REMARK  2 active torsions:
REMARK  status: ('A' for Active; 'I' for Inactive)
REMARK    7  A    between atoms: CA   and  CB  
REMARK    8  A    between atoms: CB   and  CG  
ROOT
ATOM     16  CA  ASN A 133      31.225  30.257  11.749  1.00 18.15     0.196 C 
ENDROOT
BRANCH  16  17
ATOM     17  CB  ASN A 133      30.092  31.240  11.460  1.00 18.27     0.126 C 
BRANCH  17  18
ATOM     18  CG  ASN A 133      28.759  30.577  11.303  1.00 18.94     0.276 C 
ATOM     19  OD1 ASN A 133      28.609  29.616  10.545  1.00 18.09    -0.269 OA
ATOM     20  ND2 ASN A 133      27.764  31.090  12.026  1.00 18.93    -0.107 N 
ENDBRANCH  17  18
ENDBRANCH  16  17
END_RES ASN A 133
