REMARK VINA RESULT:    -4.048      8.862     15.778
REMARK INTER + INTRA:          -7.856
REMARK INTER:                  -4.584
REMARK INTRA:                  -3.272
REMARK UNBOUND:                -3.335
REMARK SMILES Cc1cn(-c2ccccc2C(N)=O)nn1
REMARK SMILES IDX 5 1 10 2 9 3 8 4 7 5 6 6 4 7 1 8 2 9 3 10 15 11 14 12 11 13
REMARK SMILES IDX 13 14 12 15
REMARK H PARENT 12 16 12 17
REMARK Flexibility Score: inf
ROOT
ATOM      1  C   UNL     1      22.351  31.942  -0.355  1.00  0.00     0.079 A 
ATOM      2  C   UNL     1      22.227  31.148  -1.462  1.00  0.00     0.065 A 
ATOM      3  C   UNL     1      22.531  29.802  -1.338  1.00  0.00     0.016 A 
ATOM      4  C   UNL     1      22.946  29.257  -0.147  1.00  0.00     0.001 A 
ATOM      5  C   UNL     1      23.066  30.075   0.964  1.00  0.00     0.002 A 
ATOM      6  C   UNL     1      22.767  31.413   0.847  1.00  0.00     0.029 A 
ENDROOT
BRANCH   1   7
ATOM      7  N   UNL     1      22.037  33.348  -0.475  1.00  0.00    -0.220 N 
ATOM      8  C   UNL     1      22.702  36.965  -0.680  1.00  0.00     0.070 C 
ATOM      9  C   UNL     1      22.196  35.571  -0.618  1.00  0.00     0.080 A 
ATOM     10  C   UNL     1      22.892  34.388  -0.487  1.00  0.00     0.140 A 
ATOM     11  N   UNL     1      20.905  35.206  -0.684  1.00  0.00    -0.135 NA
ATOM     12  N   UNL     1      20.836  33.888  -0.597  1.00  0.00    -0.062 NA
ENDBRANCH   1   7
BRANCH   2  13
ATOM     13  C   UNL     1      21.787  31.726  -2.722  1.00  0.00     0.250 C 
ATOM     14  O   UNL     1      22.659  32.097  -3.547  1.00  0.00    -0.269 OA
ATOM     15  N   UNL     1      20.397  31.881  -3.037  1.00  0.00    -0.366 N 
ATOM     16  H   UNL     1      20.003  32.822  -3.117  1.00  0.00     0.159 HD
ATOM     17  H   UNL     1      19.850  31.017  -3.170  1.00  0.00     0.159 HD
ENDBRANCH   2  13
TORSDOF 2
BEGIN_RES LYS A 135
REMARK  4 active torsions:
REMARK  status: ('A' for Active; 'I' for Inactive)
REMARK    1  A    between atoms: CA   and  CB  
REMARK    2  A    between atoms: CB   and  CG  
REMARK    3  A    between atoms: CG   and  CD  
REMARK    4  A    between atoms: CD   and  CE  
ROOT
ATOM      1  CA  LYS A 135      33.193  34.663   9.290  1.00 25.02     0.186 C 
ENDROOT
BRANCH   1   2
ATOM      2  CB  LYS A 135      32.060  35.360  10.034  1.00 26.63     0.034 C 
BRANCH   2   3
ATOM      3  CG  LYS A 135      30.707  34.743   9.786  1.00 29.45     0.005 C 
BRANCH   3   4
ATOM      4  CD  LYS A 135      30.482  34.524   8.298  1.00 32.00     0.041 C 
BRANCH   4   5
ATOM      5  CE  LYS A 135      29.029  34.768   7.938  1.00 34.25     0.338 C 
ATOM      6  NZ  LYS A 135      28.914  35.621   6.722  1.00 35.99     0.618 N 
ENDBRANCH   4   5
ENDBRANCH   3   4
ENDBRANCH   2   3
ENDBRANCH   1   2
END_RES LYS A 135
BEGIN_RES TYR A 136
REMARK  2 active torsions:
REMARK  status: ('A' for Active; 'I' for Inactive)
REMARK    5  A    between atoms: CA   and  CB  
REMARK    6  A    between atoms: CB   and  CG  
ROOT
ATOM      7  CA  TYR A 136      36.583  36.399   8.994  1.00 26.14     0.191 C 
ENDROOT
BRANCH   7   8
ATOM      8  CB  TYR A 136      37.367  36.835  10.240  1.00 28.16     0.060 C 
BRANCH   8   9
ATOM      9  CG  TYR A 136      37.180  38.297  10.561  1.00 31.88    -0.020 A 
ATOM     10  CD2 TYR A 136      36.246  38.715  11.513  1.00 32.67    -0.002 A 
ATOM     11  CE2 TYR A 136      36.079  40.076  11.802  1.00 33.89     0.027 A 
ATOM     12  CZ  TYR A 136      36.852  41.028  11.133  1.00 34.34     0.131 A 
ATOM     13  OH  TYR A 136      36.708  42.381  11.409  1.00 35.14    -0.190 OA
ATOM     14  CE1 TYR A 136      37.783  40.631  10.184  1.00 35.01     0.027 A 
ATOM     15  CD1 TYR A 136      37.936  39.273   9.900  1.00 33.57    -0.002 A 
ENDBRANCH   8   9
ENDBRANCH   7   8
END_RES TYR A 136
BEGIN_RES ASN A 133
REMARK  2 active torsions:
REMARK  status: ('A' for Active; 'I' for Inactive)
REMARK    7  A    between atoms: CA   and  CB  
REMARK    8  A    between atoms: CB   and  CG  
ROOT
ATOM     16  CA  ASN A 133      31.225  30.257  11.749  1.00 18.15     0.196 C 
ENDROOT
BRANCH  16  17
ATOM     17  CB  ASN A 133      30.092  31.240  11.460  1.00 18.27     0.126 C 
BRANCH  17  18
ATOM     18  CG  ASN A 133      28.750  30.583  11.357  1.00 18.94     0.276 C 
ATOM     19  OD1 ASN A 133      28.574  29.603  10.630  1.00 18.09    -0.269 OA
ATOM     20  ND2 ASN A 133      27.779  31.123  12.092  1.00 18.93    -0.107 N 
ENDBRANCH  17  18
ENDBRANCH  16  17
END_RES ASN A 133
