REMARK VINA RESULT:    -3.748      2.848      5.091
REMARK INTER + INTRA:          -7.823
REMARK INTER:                  -4.983
REMARK INTRA:                  -2.840
REMARK UNBOUND:                -3.199
REMARK SMILES COc1ccc(Cn2cc(C)nn2)cc1OC
REMARK SMILES IDX 6 1 14 2 15 3 3 4 4 5 5 6 7 7 8 8 11 9 10 10 9 11 12 12
REMARK SMILES IDX 13 13 16 14 17 15 2 16 1 17
REMARK H PARENT
REMARK Flexibility Score: inf
ROOT
ATOM      1  C   UNL     1      30.985  32.457  16.409  1.00  0.00    -0.023 A 
ATOM      2  C   UNL     1      31.683  32.969  15.338  1.00  0.00     0.056 A 
ATOM      3  C   UNL     1      32.380  34.166  15.413  1.00  0.00     0.161 A 
ATOM      4  C   UNL     1      32.389  34.882  16.586  1.00  0.00     0.160 A 
ATOM      5  C   UNL     1      31.685  34.351  17.645  1.00  0.00     0.051 A 
ATOM      6  C   UNL     1      30.989  33.164  17.583  1.00  0.00     0.010 A 
ENDROOT
BRANCH   1   7
ATOM      7  C   UNL     1      30.276  31.175  16.220  1.00  0.00     0.181 C 
BRANCH   7   8
ATOM      8  N   UNL     1      28.865  31.357  15.899  1.00  0.00    -0.248 N 
ATOM      9  C   UNL     1      25.363  30.360  15.425  1.00  0.00     0.070 C 
ATOM     10  C   UNL     1      26.707  30.996  15.551  1.00  0.00     0.080 A 
ATOM     11  C   UNL     1      27.903  30.419  15.917  1.00  0.00     0.134 A 
ATOM     12  N   UNL     1      26.994  32.285  15.320  1.00  0.00    -0.136 NA
ATOM     13  N   UNL     1      28.273  32.475  15.532  1.00  0.00    -0.067 NA
ENDBRANCH   7   8
ENDBRANCH   1   7
BRANCH   3  14
ATOM     14  O   UNL     1      33.078  34.673  14.334  1.00  0.00    -0.493 OA
ATOM     15  C   UNL     1      32.347  35.330  13.316  1.00  0.00     0.278 C 
ENDBRANCH   3  14
BRANCH   4  16
ATOM     16  O   UNL     1      33.068  36.073  16.707  1.00  0.00    -0.493 OA
ATOM     17  C   UNL     1      34.383  36.193  17.166  1.00  0.00     0.278 C 
ENDBRANCH   4  16
TORSDOF 4
BEGIN_RES LYS A 135
REMARK  4 active torsions:
REMARK  status: ('A' for Active; 'I' for Inactive)
REMARK    1  A    between atoms: CA   and  CB  
REMARK    2  A    between atoms: CB   and  CG  
REMARK    3  A    between atoms: CG   and  CD  
REMARK    4  A    between atoms: CD   and  CE  
ROOT
ATOM      1  CA  LYS A 135      33.193  34.663   9.290  1.00 25.02     0.186 C 
ENDROOT
BRANCH   1   2
ATOM      2  CB  LYS A 135      32.060  35.360  10.034  1.00 26.63     0.034 C 
BRANCH   2   3
ATOM      3  CG  LYS A 135      30.713  34.719   9.818  1.00 29.45     0.005 C 
BRANCH   3   4
ATOM      4  CD  LYS A 135      30.350  34.717   8.341  1.00 32.00     0.041 C 
BRANCH   4   5
ATOM      5  CE  LYS A 135      28.850  34.581   8.162  1.00 34.25     0.338 C 
ATOM      6  NZ  LYS A 135      28.228  33.913   9.338  1.00 35.99     0.618 N 
ENDBRANCH   4   5
ENDBRANCH   3   4
ENDBRANCH   2   3
ENDBRANCH   1   2
END_RES LYS A 135
BEGIN_RES TYR A 136
REMARK  2 active torsions:
REMARK  status: ('A' for Active; 'I' for Inactive)
REMARK    5  A    between atoms: CA   and  CB  
REMARK    6  A    between atoms: CB   and  CG  
ROOT
ATOM      7  CA  TYR A 136      36.583  36.399   8.994  1.00 26.14     0.191 C 
ENDROOT
BRANCH   7   8
ATOM      8  CB  TYR A 136      37.367  36.835  10.240  1.00 28.16     0.060 C 
BRANCH   8   9
ATOM      9  CG  TYR A 136      37.453  35.747  11.282  1.00 31.88    -0.020 A 
ATOM     10  CD2 TYR A 136      36.308  35.263  11.919  1.00 32.67    -0.002 A 
ATOM     11  CE2 TYR A 136      36.399  34.253  12.886  1.00 33.89     0.027 A 
ATOM     12  CZ  TYR A 136      37.647  33.723  13.220  1.00 34.34     0.131 A 
ATOM     13  OH  TYR A 136      37.760  32.717  14.170  1.00 35.14    -0.190 OA
ATOM     14  CE1 TYR A 136      38.795  34.192  12.598  1.00 35.01     0.027 A 
ATOM     15  CD1 TYR A 136      38.693  35.202  11.640  1.00 33.57    -0.002 A 
ENDBRANCH   8   9
ENDBRANCH   7   8
END_RES TYR A 136
BEGIN_RES ASN A 133
REMARK  2 active torsions:
REMARK  status: ('A' for Active; 'I' for Inactive)
REMARK    7  A    between atoms: CA   and  CB  
REMARK    8  A    between atoms: CB   and  CG  
ROOT
ATOM     16  CA  ASN A 133      31.225  30.257  11.749  1.00 18.15     0.196 C 
ENDROOT
BRANCH  16  17
ATOM     17  CB  ASN A 133      30.092  31.240  11.460  1.00 18.27     0.126 C 
BRANCH  17  18
ATOM     18  CG  ASN A 133      28.752  30.582  11.347  1.00 18.94     0.276 C 
ATOM     19  OD1 ASN A 133      28.587  29.586  10.640  1.00 18.09    -0.269 OA
ATOM     20  ND2 ASN A 133      27.768  31.139  12.052  1.00 18.93    -0.107 N 
ENDBRANCH  17  18
ENDBRANCH  16  17
END_RES ASN A 133
