REMARK VINA RESULT:    -4.208      4.725      9.196
REMARK INTER + INTRA:          -8.399
REMARK INTER:                  -5.424
REMARK INTRA:                  -2.975
REMARK UNBOUND:                -3.208
REMARK SMILES CCOC(=O)c1cccc(-n2cc(C)nn2)c1
REMARK SMILES IDX 4 1 5 2 6 3 10 4 17 5 9 6 8 7 7 8 11 9 14 10 13 11 12 12
REMARK SMILES IDX 15 13 16 14 3 15 2 16 1 17
REMARK H PARENT
REMARK Flexibility Score: inf
ROOT
ATOM      1  C   UNL     1      28.082  39.294   5.195  1.00  0.00     0.338 C 
ATOM      2  O   UNL     1      28.929  40.127   5.605  1.00  0.00    -0.246 OA
ENDROOT
BRANCH   1   3
ATOM      3  C   UNL     1      27.844  38.020   5.854  1.00  0.00     0.062 A 
ATOM      4  C   UNL     1      26.556  36.632   7.354  1.00  0.00     0.067 A 
ATOM      5  C   UNL     1      26.784  37.837   6.728  1.00  0.00     0.044 A 
ATOM      6  C   UNL     1      27.418  35.596   7.090  1.00  0.00     0.028 A 
ATOM      7  C   UNL     1      28.498  35.720   6.224  1.00  0.00     0.003 A 
ATOM      8  C   UNL     1      28.678  36.949   5.623  1.00  0.00     0.016 A 
BRANCH   4   9
ATOM      9  N   UNL     1      25.472  36.439   8.250  1.00  0.00    -0.220 N 
ATOM     10  C   UNL     1      22.278  37.308   9.866  1.00  0.00     0.070 C 
ATOM     11  C   UNL     1      23.557  36.715   9.393  1.00  0.00     0.080 A 
ATOM     12  C   UNL     1      24.396  37.241   8.432  1.00  0.00     0.140 A 
ATOM     13  N   UNL     1      24.164  35.574   9.779  1.00  0.00    -0.135 NA
ATOM     14  N   UNL     1      25.288  35.422   9.101  1.00  0.00    -0.062 NA
ENDBRANCH   4   9
ENDBRANCH   1   3
BRANCH   1  15
ATOM     15  O   UNL     1      27.366  39.647   4.062  1.00  0.00    -0.462 OA
BRANCH  15  16
ATOM     16  C   UNL     1      26.761  40.919   3.944  1.00  0.00     0.230 C 
ATOM     17  C   UNL     1      25.642  41.014   4.935  1.00  0.00     0.049 C 
ENDBRANCH  15  16
ENDBRANCH   1  15
TORSDOF 4
BEGIN_RES LYS A 135
REMARK  4 active torsions:
REMARK  status: ('A' for Active; 'I' for Inactive)
REMARK    1  A    between atoms: CA   and  CB  
REMARK    2  A    between atoms: CB   and  CG  
REMARK    3  A    between atoms: CG   and  CD  
REMARK    4  A    between atoms: CD   and  CE  
ROOT
ATOM      1  CA  LYS A 135      33.193  34.663   9.290  1.00 25.02     0.186 C 
ENDROOT
BRANCH   1   2
ATOM      2  CB  LYS A 135      32.060  35.360  10.034  1.00 26.63     0.034 C 
BRANCH   2   3
ATOM      3  CG  LYS A 135      30.785  35.455   9.237  1.00 29.45     0.005 C 
BRANCH   3   4
ATOM      4  CD  LYS A 135      30.034  34.133   9.265  1.00 32.00     0.041 C 
BRANCH   4   5
ATOM      5  CE  LYS A 135      28.784  34.248  10.116  1.00 34.25     0.338 C 
ATOM      6  NZ  LYS A 135      28.535  35.661  10.515  1.00 35.99     0.618 N 
ENDBRANCH   4   5
ENDBRANCH   3   4
ENDBRANCH   2   3
ENDBRANCH   1   2
END_RES LYS A 135
BEGIN_RES TYR A 136
REMARK  2 active torsions:
REMARK  status: ('A' for Active; 'I' for Inactive)
REMARK    5  A    between atoms: CA   and  CB  
REMARK    6  A    between atoms: CB   and  CG  
ROOT
ATOM      7  CA  TYR A 136      36.583  36.399   8.994  1.00 26.14     0.191 C 
ENDROOT
BRANCH   7   8
ATOM      8  CB  TYR A 136      37.367  36.835  10.240  1.00 28.16     0.060 C 
BRANCH   8   9
ATOM      9  CG  TYR A 136      37.210  38.306  10.539  1.00 31.88    -0.020 A 
ATOM     10  CD2 TYR A 136      38.256  39.204  10.321  1.00 32.67    -0.002 A 
ATOM     11  CE2 TYR A 136      38.100  40.568  10.604  1.00 33.89     0.027 A 
ATOM     12  CZ  TYR A 136      36.886  41.037  11.111  1.00 34.34     0.131 A 
ATOM     13  OH  TYR A 136      36.707  42.384  11.392  1.00 35.14    -0.190 OA
ATOM     14  CE1 TYR A 136      35.836  40.158  11.335  1.00 35.01     0.027 A 
ATOM     15  CD1 TYR A 136      36.005  38.801  11.055  1.00 33.57    -0.002 A 
ENDBRANCH   8   9
ENDBRANCH   7   8
END_RES TYR A 136
BEGIN_RES ASN A 133
REMARK  2 active torsions:
REMARK  status: ('A' for Active; 'I' for Inactive)
REMARK    7  A    between atoms: CA   and  CB  
REMARK    8  A    between atoms: CB   and  CG  
ROOT
ATOM     16  CA  ASN A 133      31.225  30.257  11.749  1.00 18.15     0.196 C 
ENDROOT
BRANCH  16  17
ATOM     17  CB  ASN A 133      30.092  31.240  11.460  1.00 18.27     0.126 C 
BRANCH  17  18
ATOM     18  CG  ASN A 133      28.749  30.584  11.368  1.00 18.94     0.276 C 
ATOM     19  OD1 ASN A 133      28.566  29.602  10.646  1.00 18.09    -0.269 OA
ATOM     20  ND2 ASN A 133      27.783  31.129  12.107  1.00 18.93    -0.107 N 
ENDBRANCH  17  18
ENDBRANCH  16  17
END_RES ASN A 133
