REMARK VINA RESULT:    -4.237      7.941     13.155
REMARK INTER + INTRA:          -7.821
REMARK INTER:                  -4.644
REMARK INTRA:                  -3.177
REMARK UNBOUND:                -3.213
REMARK SMILES Cc1cn(-c2nc(C)nc(N)n2)nn1
REMARK SMILES IDX 5 1 12 2 10 3 9 4 7 5 8 6 6 7 4 8 1 9 2 10 3 11 14 12 13 13
REMARK SMILES IDX 11 14
REMARK H PARENT 11 15 11 16
REMARK Flexibility Score: inf
ROOT
ATOM      1  C   UNL     1      38.785  37.099   3.645  1.00  0.00     0.257 A 
ATOM      2  N   UNL     1      38.748  37.187   2.315  1.00  0.00    -0.175 NA
ATOM      3  C   UNL     1      37.663  37.680   1.709  1.00  0.00     0.225 A 
ATOM      4  N   UNL     1      36.613  38.086   2.444  1.00  0.00    -0.198 NA
ATOM      5  C   UNL     1      36.635  38.004   3.791  1.00  0.00     0.133 A 
ATOM      6  C   UNL     1      35.471  38.454   4.610  1.00  0.00     0.090 C 
ATOM      7  N   UNL     1      37.738  37.505   4.359  1.00  0.00    -0.196 NA
ENDROOT
BRANCH   1   8
ATOM      8  N   UNL     1      39.944  36.573   4.277  1.00  0.00    -0.185 N 
ATOM      9  C   UNL     1      43.001  36.617   6.274  1.00  0.00     0.070 C 
ATOM     10  C   UNL     1      41.817  36.337   5.441  1.00  0.00     0.080 A 
ATOM     11  C   UNL     1      40.861  37.228   5.022  1.00  0.00     0.144 A 
ATOM     12  N   UNL     1      41.462  35.153   4.939  1.00  0.00    -0.135 NA
ATOM     13  N   UNL     1      40.345  35.323   4.252  1.00  0.00    -0.059 NA
ENDBRANCH   1   8
BRANCH   3  14
ATOM     14  N   UNL     1      37.681  37.749   0.290  1.00  0.00    -0.368 N 
ATOM     15  H   UNL     1      36.790  37.810  -0.244  1.00  0.00     0.159 HD
ATOM     16  H   UNL     1      38.575  37.743  -0.240  1.00  0.00     0.159 HD
ENDBRANCH   3  14
TORSDOF 2
BEGIN_RES LYS A 135
REMARK  4 active torsions:
REMARK  status: ('A' for Active; 'I' for Inactive)
REMARK    1  A    between atoms: CA   and  CB  
REMARK    2  A    between atoms: CB   and  CG  
REMARK    3  A    between atoms: CG   and  CD  
REMARK    4  A    between atoms: CD   and  CE  
ROOT
ATOM      1  CA  LYS A 135      33.193  34.663   9.290  1.00 25.02     0.186 C 
ENDROOT
BRANCH   1   2
ATOM      2  CB  LYS A 135      32.060  35.360  10.034  1.00 26.63     0.034 C 
BRANCH   2   3
ATOM      3  CG  LYS A 135      30.696  34.806   9.711  1.00 29.45     0.005 C 
BRANCH   3   4
ATOM      4  CD  LYS A 135      30.564  34.542   8.219  1.00 32.00     0.041 C 
BRANCH   4   5
ATOM      5  CE  LYS A 135      29.190  34.956   7.726  1.00 34.25     0.338 C 
ATOM      6  NZ  LYS A 135      28.121  34.453   8.631  1.00 35.99     0.618 N 
ENDBRANCH   4   5
ENDBRANCH   3   4
ENDBRANCH   2   3
ENDBRANCH   1   2
END_RES LYS A 135
BEGIN_RES TYR A 136
REMARK  2 active torsions:
REMARK  status: ('A' for Active; 'I' for Inactive)
REMARK    5  A    between atoms: CA   and  CB  
REMARK    6  A    between atoms: CB   and  CG  
ROOT
ATOM      7  CA  TYR A 136      36.583  36.399   8.994  1.00 26.14     0.191 C 
ENDROOT
BRANCH   7   8
ATOM      8  CB  TYR A 136      37.367  36.835  10.240  1.00 28.16     0.060 C 
BRANCH   8   9
ATOM      9  CG  TYR A 136      37.277  38.320  10.492  1.00 31.88    -0.020 A 
ATOM     10  CD2 TYR A 136      37.949  38.914  11.563  1.00 32.67    -0.002 A 
ATOM     11  CE2 TYR A 136      37.858  40.294  11.789  1.00 33.89     0.027 A 
ATOM     12  CZ  TYR A 136      37.087  41.087  10.935  1.00 34.34     0.131 A 
ATOM     13  OH  TYR A 136      36.988  42.457  11.136  1.00 35.14    -0.190 OA
ATOM     14  CE1 TYR A 136      36.412  40.514   9.867  1.00 35.01     0.027 A 
ATOM     15  CD1 TYR A 136      36.506  39.137   9.656  1.00 33.57    -0.002 A 
ENDBRANCH   8   9
ENDBRANCH   7   8
END_RES TYR A 136
BEGIN_RES ASN A 133
REMARK  2 active torsions:
REMARK  status: ('A' for Active; 'I' for Inactive)
REMARK    7  A    between atoms: CA   and  CB  
REMARK    8  A    between atoms: CB   and  CG  
ROOT
ATOM     16  CA  ASN A 133      31.225  30.257  11.749  1.00 18.15     0.196 C 
ENDROOT
BRANCH  16  17
ATOM     17  CB  ASN A 133      30.092  31.240  11.460  1.00 18.27     0.126 C 
BRANCH  17  18
ATOM     18  CG  ASN A 133      28.751  30.583  11.355  1.00 18.94     0.276 C 
ATOM     19  OD1 ASN A 133      28.576  29.602  10.630  1.00 18.09    -0.269 OA
ATOM     20  ND2 ASN A 133      27.777  31.125  12.086  1.00 18.93    -0.107 N 
ENDBRANCH  17  18
ENDBRANCH  16  17
END_RES ASN A 133
