REMARK VINA RESULT:    -5.343      3.115      8.441
REMARK INTER + INTRA:          -8.918
REMARK INTER:                  -7.385
REMARK INTRA:                  -1.533
REMARK UNBOUND:                -3.263
REMARK SMILES Cc1cn(C2c3ccccc3-c3ccccc32)nn1
REMARK SMILES IDX 5 1 6 2 7 3 8 4 9 5 10 6 11 7 12 8 13 9 14 10 15 11 16 12
REMARK SMILES IDX 17 13 4 14 1 15 2 16 3 17 19 18 18 19
REMARK H PARENT
REMARK Flexibility Score: inf
ROOT
ATOM      1  C   UNL     1      27.312  36.012   7.312  1.00  0.00     0.170 C 
ATOM      2  C   UNL     1      26.228  35.927   8.301  1.00  0.00    -0.011 A 
ATOM      3  C   UNL     1      24.943  36.444   8.237  1.00  0.00     0.007 A 
ATOM      4  C   UNL     1      24.072  36.246   9.288  1.00  0.00     0.000 A 
ATOM      5  C   UNL     1      24.505  35.528  10.393  1.00  0.00     0.001 A 
ATOM      6  C   UNL     1      25.789  35.010  10.459  1.00  0.00     0.009 A 
ATOM      7  C   UNL     1      26.648  35.218   9.394  1.00  0.00    -0.012 A 
ATOM      8  C   UNL     1      28.021  34.818   9.157  1.00  0.00    -0.012 A 
ATOM      9  C   UNL     1      28.879  34.079   9.983  1.00  0.00     0.009 A 
ATOM     10  C   UNL     1      30.145  33.824   9.537  1.00  0.00     0.001 A 
ATOM     11  C   UNL     1      30.614  34.263   8.309  1.00  0.00     0.000 A 
ATOM     12  C   UNL     1      29.735  34.979   7.544  1.00  0.00     0.007 A 
ATOM     13  C   UNL     1      28.429  35.279   7.930  1.00  0.00    -0.011 A 
ENDROOT
BRANCH   1  14
ATOM     14  N   UNL     1      27.623  37.360   6.967  1.00  0.00    -0.240 N 
ATOM     15  C   UNL     1      27.943  40.151   4.663  1.00  0.00     0.070 C 
ATOM     16  C   UNL     1      27.914  39.219   5.811  1.00  0.00     0.080 A 
ATOM     17  C   UNL     1      27.522  37.890   5.742  1.00  0.00     0.135 A 
ATOM     18  N   UNL     1      28.239  39.437   7.087  1.00  0.00    -0.136 NA
ATOM     19  N   UNL     1      28.058  38.301   7.776  1.00  0.00    -0.066 NA
ENDBRANCH   1  14
TORSDOF 1
BEGIN_RES LYS A 135
REMARK  4 active torsions:
REMARK  status: ('A' for Active; 'I' for Inactive)
REMARK    1  A    between atoms: CA   and  CB  
REMARK    2  A    between atoms: CB   and  CG  
REMARK    3  A    between atoms: CG   and  CD  
REMARK    4  A    between atoms: CD   and  CE  
ROOT
ATOM      1  CA  LYS A 135      33.193  34.663   9.290  1.00 25.02     0.186 C 
ENDROOT
BRANCH   1   2
ATOM      2  CB  LYS A 135      32.060  35.360  10.034  1.00 26.63     0.034 C 
BRANCH   2   3
ATOM      3  CG  LYS A 135      32.502  36.042  11.303  1.00 29.45     0.005 C 
BRANCH   3   4
ATOM      4  CD  LYS A 135      31.428  36.995  11.803  1.00 32.00     0.041 C 
BRANCH   4   5
ATOM      5  CE  LYS A 135      30.540  37.444  10.658  1.00 34.25     0.338 C 
ATOM      6  NZ  LYS A 135      29.137  37.646  11.115  1.00 35.99     0.618 N 
ENDBRANCH   4   5
ENDBRANCH   3   4
ENDBRANCH   2   3
ENDBRANCH   1   2
END_RES LYS A 135
BEGIN_RES TYR A 136
REMARK  2 active torsions:
REMARK  status: ('A' for Active; 'I' for Inactive)
REMARK    5  A    between atoms: CA   and  CB  
REMARK    6  A    between atoms: CB   and  CG  
ROOT
ATOM      7  CA  TYR A 136      36.583  36.399   8.994  1.00 26.14     0.191 C 
ENDROOT
BRANCH   7   8
ATOM      8  CB  TYR A 136      37.367  36.835  10.240  1.00 28.16     0.060 C 
BRANCH   8   9
ATOM      9  CG  TYR A 136      36.732  38.009  10.944  1.00 31.88    -0.020 A 
ATOM     10  CD2 TYR A 136      35.925  37.827  12.069  1.00 32.67    -0.002 A 
ATOM     11  CE2 TYR A 136      35.338  38.924  12.715  1.00 33.89     0.027 A 
ATOM     12  CZ  TYR A 136      35.560  40.215  12.230  1.00 34.34     0.131 A 
ATOM     13  OH  TYR A 136      34.995  41.316  12.857  1.00 35.14    -0.190 OA
ATOM     14  CE1 TYR A 136      36.358  40.414  11.112  1.00 35.01     0.027 A 
ATOM     15  CD1 TYR A 136      36.932  39.313  10.474  1.00 33.57    -0.002 A 
ENDBRANCH   8   9
ENDBRANCH   7   8
END_RES TYR A 136
BEGIN_RES ASN A 133
REMARK  2 active torsions:
REMARK  status: ('A' for Active; 'I' for Inactive)
REMARK    7  A    between atoms: CA   and  CB  
REMARK    8  A    between atoms: CB   and  CG  
ROOT
ATOM     16  CA  ASN A 133      31.225  30.257  11.749  1.00 18.15     0.196 C 
ENDROOT
BRANCH  16  17
ATOM     17  CB  ASN A 133      30.092  31.240  11.460  1.00 18.27     0.126 C 
BRANCH  17  18
ATOM     18  CG  ASN A 133      28.758  30.577  11.307  1.00 18.94     0.276 C 
ATOM     19  OD1 ASN A 133      28.605  29.619  10.547  1.00 18.09    -0.269 OA
ATOM     20  ND2 ASN A 133      27.767  31.088  12.036  1.00 18.93    -0.107 N 
ENDBRANCH  17  18
ENDBRANCH  16  17
END_RES ASN A 133
