REMARK VINA RESULT:    -3.251      7.485     15.444
REMARK INTER + INTRA:          -6.563
REMARK INTER:                  -3.450
REMARK INTRA:                  -3.113
REMARK UNBOUND:                -3.121
REMARK SMILES Cc1cn(-c2cccnc2)nn1
REMARK SMILES IDX 1 1 2 2 3 3 4 4 11 5 12 6 5 7 6 8 10 9 7 10 9 11 8 12
REMARK H PARENT
REMARK Flexibility Score: inf
ROOT
ATOM      1  C   UNL     1      38.789  32.745  19.422  1.00  0.00     0.070 C 
ATOM      2  C   UNL     1      38.395  33.666  18.322  1.00  0.00     0.080 A 
ATOM      3  C   UNL     1      38.569  33.468  16.969  1.00  0.00     0.140 A 
ATOM      4  N   UNL     1      38.084  34.525  16.287  1.00  0.00    -0.219 N 
ATOM      5  N   UNL     1      37.618  35.359  17.204  1.00  0.00    -0.062 NA
ATOM      6  N   UNL     1      37.790  34.874  18.419  1.00  0.00    -0.135 NA
ENDROOT
BRANCH   4   7
ATOM      7  C   UNL     1      38.088  34.679  14.875  1.00  0.00     0.085 A 
ATOM      8  C   UNL     1      36.927  34.871  14.161  1.00  0.00     0.031 A 
ATOM      9  C   UNL     1      39.288  34.635  14.198  1.00  0.00     0.139 A 
ATOM     10  C   UNL     1      36.949  35.019  12.789  1.00  0.00     0.022 A 
ATOM     11  N   UNL     1      39.315  34.781  12.840  1.00  0.00    -0.262 NA
ATOM     12  C   UNL     1      38.173  34.967  12.158  1.00  0.00     0.111 A 
ENDBRANCH   4   7
TORSDOF 1
BEGIN_RES LYS A 135
REMARK  4 active torsions:
REMARK  status: ('A' for Active; 'I' for Inactive)
REMARK    1  A    between atoms: CA   and  CB  
REMARK    2  A    between atoms: CB   and  CG  
REMARK    3  A    between atoms: CG   and  CD  
REMARK    4  A    between atoms: CD   and  CE  
ROOT
ATOM      1  CA  LYS A 135      33.193  34.663   9.290  1.00 25.02     0.186 C 
ENDROOT
BRANCH   1   2
ATOM      2  CB  LYS A 135      32.060  35.360  10.034  1.00 26.63     0.034 C 
BRANCH   2   3
ATOM      3  CG  LYS A 135      30.696  34.810   9.707  1.00 29.45     0.005 C 
BRANCH   3   4
ATOM      4  CD  LYS A 135      30.585  34.497   8.222  1.00 32.00     0.041 C 
BRANCH   4   5
ATOM      5  CE  LYS A 135      29.274  35.017   7.665  1.00 34.25     0.338 C 
ATOM      6  NZ  LYS A 135      28.115  34.481   8.431  1.00 35.99     0.618 N 
ENDBRANCH   4   5
ENDBRANCH   3   4
ENDBRANCH   2   3
ENDBRANCH   1   2
END_RES LYS A 135
BEGIN_RES TYR A 136
REMARK  2 active torsions:
REMARK  status: ('A' for Active; 'I' for Inactive)
REMARK    5  A    between atoms: CA   and  CB  
REMARK    6  A    between atoms: CB   and  CG  
ROOT
ATOM      7  CA  TYR A 136      36.583  36.399   8.994  1.00 26.14     0.191 C 
ENDROOT
BRANCH   7   8
ATOM      8  CB  TYR A 136      37.367  36.835  10.240  1.00 28.16     0.060 C 
BRANCH   8   9
ATOM      9  CG  TYR A 136      37.125  38.280  10.601  1.00 31.88    -0.020 A 
ATOM     10  CD2 TYR A 136      37.602  39.316   9.796  1.00 32.67    -0.002 A 
ATOM     11  CE2 TYR A 136      37.374  40.655  10.142  1.00 33.89     0.027 A 
ATOM     12  CZ  TYR A 136      36.662  40.960  11.304  1.00 34.34     0.131 A 
ATOM     13  OH  TYR A 136      36.417  42.278  11.662  1.00 35.14    -0.190 OA
ATOM     14  CE1 TYR A 136      36.181  39.943  12.117  1.00 35.01     0.027 A 
ATOM     15  CD1 TYR A 136      36.421  38.613  11.765  1.00 33.57    -0.002 A 
ENDBRANCH   8   9
ENDBRANCH   7   8
END_RES TYR A 136
BEGIN_RES ASN A 133
REMARK  2 active torsions:
REMARK  status: ('A' for Active; 'I' for Inactive)
REMARK    7  A    between atoms: CA   and  CB  
REMARK    8  A    between atoms: CB   and  CG  
ROOT
ATOM     16  CA  ASN A 133      31.225  30.257  11.749  1.00 18.15     0.196 C 
ENDROOT
BRANCH  16  17
ATOM     17  CB  ASN A 133      30.092  31.240  11.460  1.00 18.27     0.126 C 
BRANCH  17  18
ATOM     18  CG  ASN A 133      28.752  30.582  11.347  1.00 18.94     0.276 C 
ATOM     19  OD1 ASN A 133      28.580  29.605  10.616  1.00 18.09    -0.269 OA
ATOM     20  ND2 ASN A 133      27.776  31.118  12.079  1.00 18.93    -0.107 N 
ENDBRANCH  17  18
ENDBRANCH  16  17
END_RES ASN A 133
