REMARK VINA RESULT:    -4.178      1.787      2.706
REMARK INTER + INTRA:         -10.496
REMARK INTER:                  -7.151
REMARK INTRA:                  -3.345
REMARK UNBOUND:                -3.509
REMARK SMILES Cc1cn(CCCCCCCCCCC(=O)O)nn1
REMARK SMILES IDX 10 1 9 2 8 3 7 4 6 5 5 6 4 7 1 8 2 9 3 10 19 11 18 12 11 13
REMARK SMILES IDX 12 14 13 15 14 16 15 17 16 18 17 19
REMARK H PARENT 17 20
REMARK Flexibility Score: inf
ROOT
ATOM      1  C   UNL     1      33.434  36.321  13.721  1.00  0.00     0.000 C 
ENDROOT
BRANCH   1   2
ATOM      2  C   UNL     1      33.272  35.922  15.123  1.00  0.00     0.000 C 
BRANCH   2   3
ATOM      3  C   UNL     1      32.125  35.149  15.619  1.00  0.00     0.000 C 
BRANCH   3   4
ATOM      4  C   UNL     1      32.053  33.698  15.328  1.00  0.00     0.002 C 
BRANCH   4   5
ATOM      5  C   UNL     1      31.320  32.990  16.479  1.00  0.00     0.024 C 
BRANCH   5   6
ATOM      6  C   UNL     1      29.847  33.198  16.464  1.00  0.00     0.146 C 
BRANCH   6   7
ATOM      7  N   UNL     1      29.173  31.885  16.447  1.00  0.00    -0.252 N 
ATOM      8  C   UNL     1      27.298  29.149  18.019  1.00  0.00     0.070 C 
ATOM      9  C   UNL     1      28.042  30.096  17.151  1.00  0.00     0.080 A 
ATOM     10  C   UNL     1      28.565  31.318  17.519  1.00  0.00     0.134 A 
ATOM     11  N   UNL     1      28.358  29.966  15.848  1.00  0.00    -0.136 NA
ATOM     12  N   UNL     1      29.034  31.047  15.453  1.00  0.00    -0.067 NA
ENDBRANCH   6   7
ENDBRANCH   5   6
ENDBRANCH   4   5
ENDBRANCH   3   4
ENDBRANCH   2   3
ENDBRANCH   1   2
BRANCH   1  13
ATOM     13  C   UNL     1      34.236  35.497  12.797  1.00  0.00     0.000 C 
BRANCH  13  14
ATOM     14  C   UNL     1      35.212  34.597  13.584  1.00  0.00     0.001 C 
BRANCH  14  15
ATOM     15  C   UNL     1      36.401  34.201  12.765  1.00  0.00     0.012 C 
BRANCH  15  16
ATOM     16  C   UNL     1      37.684  34.306  13.588  1.00  0.00     0.122 C 
BRANCH  16  17
ATOM     17  C   UNL     1      38.838  33.786  12.815  1.00  0.00     0.303 C 
ATOM     18  O   UNL     1      39.852  34.483  12.580  1.00  0.00    -0.252 OA
BRANCH  17  19
ATOM     19  O   UNL     1      38.810  32.489  12.329  1.00  0.00    -0.481 OA
ATOM     20  H   UNL     1      39.399  31.754  12.670  1.00  0.00     0.296 HD
ENDBRANCH  17  19
ENDBRANCH  16  17
ENDBRANCH  15  16
ENDBRANCH  14  15
ENDBRANCH  13  14
ENDBRANCH   1  13
TORSDOF 12
BEGIN_RES LYS A 135
REMARK  4 active torsions:
REMARK  status: ('A' for Active; 'I' for Inactive)
REMARK    1  A    between atoms: CA   and  CB  
REMARK    2  A    between atoms: CB   and  CG  
REMARK    3  A    between atoms: CG   and  CD  
REMARK    4  A    between atoms: CD   and  CE  
ROOT
ATOM      1  CA  LYS A 135      33.193  34.663   9.290  1.00 25.02     0.186 C 
ENDROOT
BRANCH   1   2
ATOM      2  CB  LYS A 135      32.060  35.360  10.034  1.00 26.63     0.034 C 
BRANCH   2   3
ATOM      3  CG  LYS A 135      30.836  35.592   9.186  1.00 29.45     0.005 C 
BRANCH   3   4
ATOM      4  CD  LYS A 135      30.286  34.274   8.665  1.00 32.00     0.041 C 
BRANCH   4   5
ATOM      5  CE  LYS A 135      28.880  34.041   9.182  1.00 34.25     0.338 C 
ATOM      6  NZ  LYS A 135      27.868  34.671   8.289  1.00 35.99     0.618 N 
ENDBRANCH   4   5
ENDBRANCH   3   4
ENDBRANCH   2   3
ENDBRANCH   1   2
END_RES LYS A 135
BEGIN_RES TYR A 136
REMARK  2 active torsions:
REMARK  status: ('A' for Active; 'I' for Inactive)
REMARK    5  A    between atoms: CA   and  CB  
REMARK    6  A    between atoms: CB   and  CG  
ROOT
ATOM      7  CA  TYR A 136      36.583  36.399   8.994  1.00 26.14     0.191 C 
ENDROOT
BRANCH   7   8
ATOM      8  CB  TYR A 136      37.367  36.835  10.240  1.00 28.16     0.060 C 
BRANCH   8   9
ATOM      9  CG  TYR A 136      36.609  37.830  11.084  1.00 31.88    -0.020 A 
ATOM     10  CD2 TYR A 136      35.673  38.696  10.515  1.00 32.67    -0.002 A 
ATOM     11  CE2 TYR A 136      34.975  39.618  11.307  1.00 33.89     0.027 A 
ATOM     12  CZ  TYR A 136      35.216  39.673  12.682  1.00 34.34     0.131 A 
ATOM     13  OH  TYR A 136      34.532  40.573  13.487  1.00 35.14    -0.190 OA
ATOM     14  CE1 TYR A 136      36.143  38.821  13.264  1.00 35.01     0.027 A 
ATOM     15  CD1 TYR A 136      36.837  37.912  12.464  1.00 33.57    -0.002 A 
ENDBRANCH   8   9
ENDBRANCH   7   8
END_RES TYR A 136
BEGIN_RES ASN A 133
REMARK  2 active torsions:
REMARK  status: ('A' for Active; 'I' for Inactive)
REMARK    7  A    between atoms: CA   and  CB  
REMARK    8  A    between atoms: CB   and  CG  
ROOT
ATOM     16  CA  ASN A 133      31.225  30.257  11.749  1.00 18.15     0.196 C 
ENDROOT
BRANCH  16  17
ATOM     17  CB  ASN A 133      30.092  31.240  11.460  1.00 18.27     0.126 C 
BRANCH  17  18
ATOM     18  CG  ASN A 133      28.750  30.583  11.360  1.00 18.94     0.276 C 
ATOM     19  OD1 ASN A 133      28.572  29.603  10.635  1.00 18.09    -0.269 OA
ATOM     20  ND2 ASN A 133      27.780  31.125  12.096  1.00 18.93    -0.107 N 
ENDBRANCH  17  18
ENDBRANCH  16  17
END_RES ASN A 133
