REMARK VINA RESULT:    -3.282      2.698      3.598
REMARK INTER + INTRA:          -6.769
REMARK INTER:                  -3.662
REMARK INTRA:                  -3.107
REMARK UNBOUND:                -3.103
REMARK SMILES Cc1cn(-c2ncccc2C#N)nn1
REMARK SMILES IDX 5 1 6 2 7 3 8 4 9 5 10 6 4 7 1 8 2 9 3 10 14 11 13 12 11 13
REMARK SMILES IDX 12 14
REMARK H PARENT
REMARK Flexibility Score: inf
ROOT
ATOM      1  C   UNL     1      40.474  34.701  12.681  1.00  0.00     0.173 A 
ATOM      2  N   UNL     1      41.147  33.592  12.323  1.00  0.00    -0.236 NA
ATOM      3  C   UNL     1      42.394  33.608  11.832  1.00  0.00     0.113 A 
ATOM      4  C   UNL     1      43.081  34.796  11.660  1.00  0.00     0.022 A 
ATOM      5  C   UNL     1      42.408  35.951  12.023  1.00  0.00     0.025 A 
ATOM      6  C   UNL     1      41.114  35.905  12.529  1.00  0.00     0.097 A 
ENDROOT
BRANCH   1   7
ATOM      7  N   UNL     1      39.144  34.624  13.200  1.00  0.00    -0.201 N 
ATOM      8  C   UNL     1      35.462  34.505  13.137  1.00  0.00     0.070 C 
ATOM      9  C   UNL     1      36.922  34.536  13.415  1.00  0.00     0.080 A 
ATOM     10  C   UNL     1      37.976  34.627  12.527  1.00  0.00     0.142 A 
ATOM     11  N   UNL     1      37.507  34.479  14.632  1.00  0.00    -0.135 NA
ATOM     12  N   UNL     1      38.824  34.531  14.480  1.00  0.00    -0.061 NA
ENDBRANCH   1   7
BRANCH   6  13
ATOM     13  C   UNL     1      40.412  37.100  12.907  1.00  0.00     0.103 C 
ATOM     14  N   UNL     1      39.871  38.058  13.206  1.00  0.00    -0.192 NA
ENDBRANCH   6  13
TORSDOF 2
BEGIN_RES LYS A 135
REMARK  4 active torsions:
REMARK  status: ('A' for Active; 'I' for Inactive)
REMARK    1  A    between atoms: CA   and  CB  
REMARK    2  A    between atoms: CB   and  CG  
REMARK    3  A    between atoms: CG   and  CD  
REMARK    4  A    between atoms: CD   and  CE  
ROOT
ATOM      1  CA  LYS A 135      33.193  34.663   9.290  1.00 25.02     0.186 C 
ENDROOT
BRANCH   1   2
ATOM      2  CB  LYS A 135      32.060  35.360  10.034  1.00 26.63     0.034 C 
BRANCH   2   3
ATOM      3  CG  LYS A 135      30.800  35.500   9.219  1.00 29.45     0.005 C 
BRANCH   3   4
ATOM      4  CD  LYS A 135      30.106  34.156   9.069  1.00 32.00     0.041 C 
BRANCH   4   5
ATOM      5  CE  LYS A 135      28.660  34.346   8.650  1.00 34.25     0.338 C 
ATOM      6  NZ  LYS A 135      27.732  33.684   9.608  1.00 35.99     0.618 N 
ENDBRANCH   4   5
ENDBRANCH   3   4
ENDBRANCH   2   3
ENDBRANCH   1   2
END_RES LYS A 135
BEGIN_RES TYR A 136
REMARK  2 active torsions:
REMARK  status: ('A' for Active; 'I' for Inactive)
REMARK    5  A    between atoms: CA   and  CB  
REMARK    6  A    between atoms: CB   and  CG  
ROOT
ATOM      7  CA  TYR A 136      36.583  36.399   8.994  1.00 26.14     0.191 C 
ENDROOT
BRANCH   7   8
ATOM      8  CB  TYR A 136      37.367  36.835  10.240  1.00 28.16     0.060 C 
BRANCH   8   9
ATOM      9  CG  TYR A 136      36.815  38.094  10.861  1.00 31.88    -0.020 A 
ATOM     10  CD2 TYR A 136      36.668  39.265  10.114  1.00 32.67    -0.002 A 
ATOM     11  CE2 TYR A 136      36.156  40.430  10.701  1.00 33.89     0.027 A 
ATOM     12  CZ  TYR A 136      35.788  40.424  12.049  1.00 34.34     0.131 A 
ATOM     13  OH  TYR A 136      35.273  41.564  12.649  1.00 35.14    -0.190 OA
ATOM     14  CE1 TYR A 136      35.929  39.270  12.807  1.00 35.01     0.027 A 
ATOM     15  CD1 TYR A 136      36.446  38.118  12.212  1.00 33.57    -0.002 A 
ENDBRANCH   8   9
ENDBRANCH   7   8
END_RES TYR A 136
BEGIN_RES ASN A 133
REMARK  2 active torsions:
REMARK  status: ('A' for Active; 'I' for Inactive)
REMARK    7  A    between atoms: CA   and  CB  
REMARK    8  A    between atoms: CB   and  CG  
ROOT
ATOM     16  CA  ASN A 133      31.225  30.257  11.749  1.00 18.15     0.196 C 
ENDROOT
BRANCH  16  17
ATOM     17  CB  ASN A 133      30.092  31.240  11.460  1.00 18.27     0.126 C 
BRANCH  17  18
ATOM     18  CG  ASN A 133      28.750  30.584  11.364  1.00 18.94     0.276 C 
ATOM     19  OD1 ASN A 133      28.562  29.621  10.619  1.00 18.09    -0.269 OA
ATOM     20  ND2 ASN A 133      27.790  31.107  12.126  1.00 18.93    -0.107 N 
ENDBRANCH  17  18
ENDBRANCH  16  17
END_RES ASN A 133
