REMARK VINA RESULT:    -3.844      2.126      4.822
REMARK INTER + INTRA:          -9.938
REMARK INTER:                  -7.274
REMARK INTRA:                  -2.664
REMARK UNBOUND:                -3.509
REMARK SMILES Cc1cn(CCCCCCCCCCC(=O)O)nn1
REMARK SMILES IDX 10 1 9 2 8 3 7 4 6 5 5 6 4 7 1 8 2 9 3 10 19 11 18 12 11 13
REMARK SMILES IDX 12 14 13 15 14 16 15 17 16 18 17 19
REMARK H PARENT 17 20
REMARK Flexibility Score: inf
ROOT
ATOM      1  C   UNL     1      32.991  37.499  12.980  1.00  0.00     0.000 C 
ENDROOT
BRANCH   1   2
ATOM      2  C   UNL     1      32.382  38.468  12.064  1.00  0.00     0.000 C 
BRANCH   2   3
ATOM      3  C   UNL     1      32.303  38.272  10.610  1.00  0.00     0.000 C 
BRANCH   3   4
ATOM      4  C   UNL     1      31.579  39.268   9.786  1.00  0.00     0.002 C 
BRANCH   4   5
ATOM      5  C   UNL     1      30.125  39.366  10.279  1.00  0.00     0.024 C 
BRANCH   5   6
ATOM      6  C   UNL     1      29.149  39.674   9.198  1.00  0.00     0.146 C 
BRANCH   6   7
ATOM      7  N   UNL     1      28.565  38.413   8.701  1.00  0.00    -0.252 N 
ATOM      8  C   UNL     1      28.190  35.736   6.219  1.00  0.00     0.070 C 
ATOM      9  C   UNL     1      28.150  36.673   7.370  1.00  0.00     0.080 A 
ATOM     10  C   UNL     1      28.878  37.835   7.515  1.00  0.00     0.134 A 
ATOM     11  N   UNL     1      27.410  36.588   8.493  1.00  0.00    -0.136 NA
ATOM     12  N   UNL     1      27.677  37.640   9.270  1.00  0.00    -0.067 NA
ENDBRANCH   6   7
ENDBRANCH   5   6
ENDBRANCH   4   5
ENDBRANCH   3   4
ENDBRANCH   2   3
ENDBRANCH   1   2
BRANCH   1  13
ATOM     13  C   UNL     1      33.777  36.365  12.455  1.00  0.00     0.000 C 
BRANCH  13  14
ATOM     14  C   UNL     1      33.911  35.260  13.523  1.00  0.00     0.001 C 
BRANCH  14  15
ATOM     15  C   UNL     1      35.121  34.406  13.303  1.00  0.00     0.012 C 
BRANCH  15  16
ATOM     16  C   UNL     1      36.334  34.991  14.025  1.00  0.00     0.122 C 
BRANCH  16  17
ATOM     17  C   UNL     1      37.493  34.072  13.916  1.00  0.00     0.303 C 
ATOM     18  O   UNL     1      38.641  34.397  14.296  1.00  0.00    -0.252 OA
BRANCH  17  19
ATOM     19  O   UNL     1      37.317  32.807  13.378  1.00  0.00    -0.481 OA
ATOM     20  H   UNL     1      37.273  31.970  13.926  1.00  0.00     0.296 HD
ENDBRANCH  17  19
ENDBRANCH  16  17
ENDBRANCH  15  16
ENDBRANCH  14  15
ENDBRANCH  13  14
ENDBRANCH   1  13
TORSDOF 12
BEGIN_RES LYS A 135
REMARK  4 active torsions:
REMARK  status: ('A' for Active; 'I' for Inactive)
REMARK    1  A    between atoms: CA   and  CB  
REMARK    2  A    between atoms: CB   and  CG  
REMARK    3  A    between atoms: CG   and  CD  
REMARK    4  A    between atoms: CD   and  CE  
ROOT
ATOM      1  CA  LYS A 135      33.193  34.663   9.290  1.00 25.02     0.186 C 
ENDROOT
BRANCH   1   2
ATOM      2  CB  LYS A 135      32.060  35.360  10.034  1.00 26.63     0.034 C 
BRANCH   2   3
ATOM      3  CG  LYS A 135      30.697  35.078   9.457  1.00 29.45     0.005 C 
BRANCH   3   4
ATOM      4  CD  LYS A 135      29.697  34.779  10.563  1.00 32.00     0.041 C 
BRANCH   4   5
ATOM      5  CE  LYS A 135      30.052  35.544  11.823  1.00 34.25     0.338 C 
ATOM      6  NZ  LYS A 135      30.143  34.633  12.997  1.00 35.99     0.618 N 
ENDBRANCH   4   5
ENDBRANCH   3   4
ENDBRANCH   2   3
ENDBRANCH   1   2
END_RES LYS A 135
BEGIN_RES TYR A 136
REMARK  2 active torsions:
REMARK  status: ('A' for Active; 'I' for Inactive)
REMARK    5  A    between atoms: CA   and  CB  
REMARK    6  A    between atoms: CB   and  CG  
ROOT
ATOM      7  CA  TYR A 136      36.583  36.399   8.994  1.00 26.14     0.191 C 
ENDROOT
BRANCH   7   8
ATOM      8  CB  TYR A 136      37.367  36.835  10.240  1.00 28.16     0.060 C 
BRANCH   8   9
ATOM      9  CG  TYR A 136      36.761  38.041  10.914  1.00 31.88    -0.020 A 
ATOM     10  CD2 TYR A 136      36.044  38.993  10.186  1.00 32.67    -0.002 A 
ATOM     11  CE2 TYR A 136      35.486  40.110  10.821  1.00 33.89     0.027 A 
ATOM     12  CZ  TYR A 136      35.648  40.278  12.199  1.00 34.34     0.131 A 
ATOM     13  OH  TYR A 136      35.098  41.373  12.851  1.00 35.14    -0.190 OA
ATOM     14  CE1 TYR A 136      36.358  39.343  12.938  1.00 35.01     0.027 A 
ATOM     15  CD1 TYR A 136      36.914  38.237  12.293  1.00 33.57    -0.002 A 
ENDBRANCH   8   9
ENDBRANCH   7   8
END_RES TYR A 136
BEGIN_RES ASN A 133
REMARK  2 active torsions:
REMARK  status: ('A' for Active; 'I' for Inactive)
REMARK    7  A    between atoms: CA   and  CB  
REMARK    8  A    between atoms: CB   and  CG  
ROOT
ATOM     16  CA  ASN A 133      31.225  30.257  11.749  1.00 18.15     0.196 C 
ENDROOT
BRANCH  16  17
ATOM     17  CB  ASN A 133      30.092  31.240  11.460  1.00 18.27     0.126 C 
BRANCH  17  18
ATOM     18  CG  ASN A 133      28.751  30.583  11.357  1.00 18.94     0.276 C 
ATOM     19  OD1 ASN A 133      28.576  29.599  10.636  1.00 18.09    -0.269 OA
ATOM     20  ND2 ASN A 133      27.777  31.129  12.084  1.00 18.93    -0.107 N 
ENDBRANCH  17  18
ENDBRANCH  16  17
END_RES ASN A 133
