REMARK VINA RESULT:    -3.955      2.379      3.624
REMARK INTER + INTRA:          -7.981
REMARK INTER:                  -4.510
REMARK INTRA:                  -3.471
REMARK UNBOUND:                -3.332
REMARK SMILES Cc1cn(CC(=O)Nc2ncccn2)nn1
REMARK SMILES IDX 6 1 7 2 8 3 5 5 4 6 1 7 2 8 3 9 16 10 15 11 9 12 10 13 14 14
REMARK SMILES IDX 11 15 13 16 12 17
REMARK H PARENT 8 4
REMARK Flexibility Score: inf
ROOT
ATOM      1  C   UNL     1      37.625  33.602  12.906  1.00  0.00     0.248 C 
ATOM      2  O   UNL     1      38.049  32.456  13.198  1.00  0.00    -0.272 OA
ATOM      3  N   UNL     1      38.567  34.680  13.001  1.00  0.00    -0.293 N 
ATOM      4  H   UNL     1      38.237  35.637  12.764  1.00  0.00     0.173 HD
ENDROOT
BRANCH   1   5
ATOM      5  C   UNL     1      36.258  33.901  12.482  1.00  0.00     0.246 C 
BRANCH   5   6
ATOM      6  N   UNL     1      35.591  34.789  13.415  1.00  0.00    -0.243 N 
ATOM      7  C   UNL     1      32.810  36.826  14.695  1.00  0.00     0.070 C 
ATOM      8  C   UNL     1      34.074  36.083  14.401  1.00  0.00     0.080 A 
ATOM      9  C   UNL     1      34.344  35.270  13.313  1.00  0.00     0.134 A 
ATOM     10  N   UNL     1      35.205  36.059  15.140  1.00  0.00    -0.136 NA
ATOM     11  N   UNL     1      36.080  35.292  14.538  1.00  0.00    -0.067 NA
ENDBRANCH   5   6
ENDBRANCH   1   5
BRANCH   3  12
ATOM     12  C   UNL     1      39.905  34.479  13.401  1.00  0.00     0.229 A 
ATOM     13  N   UNL     1      40.319  34.738  14.650  1.00  0.00    -0.221 NA
ATOM     14  N   UNL     1      40.792  34.017  12.513  1.00  0.00    -0.221 NA
ATOM     15  C   UNL     1      41.591  34.553  15.051  1.00  0.00     0.117 A 
ATOM     16  C   UNL     1      42.087  33.801  12.824  1.00  0.00     0.117 A 
ATOM     17  C   UNL     1      42.493  34.071  14.105  1.00  0.00     0.040 A 
ENDBRANCH   3  12
TORSDOF 3
BEGIN_RES LYS A 135
REMARK  4 active torsions:
REMARK  status: ('A' for Active; 'I' for Inactive)
REMARK    1  A    between atoms: CA   and  CB  
REMARK    2  A    between atoms: CB   and  CG  
REMARK    3  A    between atoms: CG   and  CD  
REMARK    4  A    between atoms: CD   and  CE  
ROOT
ATOM      1  CA  LYS A 135      33.193  34.663   9.290  1.00 25.02     0.186 C 
ENDROOT
BRANCH   1   2
ATOM      2  CB  LYS A 135      32.060  35.360  10.034  1.00 26.63     0.034 C 
BRANCH   2   3
ATOM      3  CG  LYS A 135      30.707  34.745   9.784  1.00 29.45     0.005 C 
BRANCH   3   4
ATOM      4  CD  LYS A 135      30.463  34.574   8.293  1.00 32.00     0.041 C 
BRANCH   4   5
ATOM      5  CE  LYS A 135      29.011  34.854   7.955  1.00 34.25     0.338 C 
ATOM      6  NZ  LYS A 135      28.890  35.554   6.646  1.00 35.99     0.618 N 
ENDBRANCH   4   5
ENDBRANCH   3   4
ENDBRANCH   2   3
ENDBRANCH   1   2
END_RES LYS A 135
BEGIN_RES TYR A 136
REMARK  2 active torsions:
REMARK  status: ('A' for Active; 'I' for Inactive)
REMARK    5  A    between atoms: CA   and  CB  
REMARK    6  A    between atoms: CB   and  CG  
ROOT
ATOM      7  CA  TYR A 136      36.583  36.399   8.994  1.00 26.14     0.191 C 
ENDROOT
BRANCH   7   8
ATOM      8  CB  TYR A 136      37.367  36.835  10.240  1.00 28.16     0.060 C 
BRANCH   8   9
ATOM      9  CG  TYR A 136      36.781  38.062  10.894  1.00 31.88    -0.020 A 
ATOM     10  CD2 TYR A 136      36.441  39.190  10.144  1.00 32.67    -0.002 A 
ATOM     11  CE2 TYR A 136      35.899  40.325  10.762  1.00 33.89     0.027 A 
ATOM     12  CZ  TYR A 136      35.695  40.332  12.144  1.00 34.34     0.131 A 
ATOM     13  OH  TYR A 136      35.153  41.442  12.776  1.00 35.14    -0.190 OA
ATOM     14  CE1 TYR A 136      36.028  39.220  12.905  1.00 35.01     0.027 A 
ATOM     15  CD1 TYR A 136      36.573  38.098  12.279  1.00 33.57    -0.002 A 
ENDBRANCH   8   9
ENDBRANCH   7   8
END_RES TYR A 136
BEGIN_RES ASN A 133
REMARK  2 active torsions:
REMARK  status: ('A' for Active; 'I' for Inactive)
REMARK    7  A    between atoms: CA   and  CB  
REMARK    8  A    between atoms: CB   and  CG  
ROOT
ATOM     16  CA  ASN A 133      31.225  30.257  11.749  1.00 18.15     0.196 C 
ENDROOT
BRANCH  16  17
ATOM     17  CB  ASN A 133      30.092  31.240  11.460  1.00 18.27     0.126 C 
BRANCH  17  18
ATOM     18  CG  ASN A 133      28.751  30.582  11.350  1.00 18.94     0.276 C 
ATOM     19  OD1 ASN A 133      28.578  29.606  10.619  1.00 18.09    -0.269 OA
ATOM     20  ND2 ASN A 133      27.777  31.118  12.084  1.00 18.93    -0.107 N 
ENDBRANCH  17  18
ENDBRANCH  16  17
END_RES ASN A 133
