REMARK VINA RESULT:    -5.417      1.965      2.763
REMARK INTER + INTRA:          -7.047
REMARK INTER:                  -3.992
REMARK INTRA:                  -3.055
REMARK UNBOUND:                -1.313
REMARK SMILES Cc1cn(-c2ccccc2I)nn1
REMARK SMILES IDX 5 1 6 2 7 3 8 4 9 5 10 6 11 7 4 8 1 9 2 10 3 11 13 12 12 13
REMARK H PARENT
REMARK Flexibility Score: inf
ROOT
ATOM      1  C   UNL     1      38.567  34.467  15.203  1.00  0.00     0.080 A 
ATOM      2  C   UNL     1      38.451  33.911  16.460  1.00  0.00     0.029 A 
ATOM      3  C   UNL     1      39.530  33.805  17.324  1.00  0.00     0.002 A 
ATOM      4  C   UNL     1      40.781  34.268  16.928  1.00  0.00     0.001 A 
ATOM      5  C   UNL     1      40.918  34.828  15.672  1.00  0.00     0.017 A 
ATOM      6  C   UNL     1      39.828  34.922  14.833  1.00  0.00     0.039 A 
ATOM      7  I   UNL     1      40.072  35.783  12.923  1.00  0.00    -0.042 I 
ENDROOT
BRANCH   1   8
ATOM      8  N   UNL     1      37.442  34.568  14.326  1.00  0.00    -0.219 N 
ATOM      9  C   UNL     1      34.409  35.885  12.825  1.00  0.00     0.070 C 
ATOM     10  C   UNL     1      35.637  35.151  13.265  1.00  0.00     0.080 A 
ATOM     11  C   UNL     1      36.491  35.497  14.283  1.00  0.00     0.140 A 
ATOM     12  N   UNL     1      36.116  34.015  12.731  1.00  0.00    -0.135 NA
ATOM     13  N   UNL     1      37.196  33.679  13.376  1.00  0.00    -0.062 NA
ENDBRANCH   1   8
TORSDOF 1
BEGIN_RES LYS A 135
REMARK  4 active torsions:
REMARK  status: ('A' for Active; 'I' for Inactive)
REMARK    1  A    between atoms: CA   and  CB  
REMARK    2  A    between atoms: CB   and  CG  
REMARK    3  A    between atoms: CG   and  CD  
REMARK    4  A    between atoms: CD   and  CE  
ROOT
ATOM      1  CA  LYS A 135      33.193  34.663   9.290  1.00 25.02     0.186 C 
ENDROOT
BRANCH   1   2
ATOM      2  CB  LYS A 135      32.060  35.360  10.034  1.00 26.63     0.034 C 
BRANCH   2   3
ATOM      3  CG  LYS A 135      30.803  35.508   9.216  1.00 29.45     0.005 C 
BRANCH   3   4
ATOM      4  CD  LYS A 135      30.131  34.159   9.016  1.00 32.00     0.041 C 
BRANCH   4   5
ATOM      5  CE  LYS A 135      28.674  34.341   8.636  1.00 34.25     0.338 C 
ATOM      6  NZ  LYS A 135      27.775  33.689   9.628  1.00 35.99     0.618 N 
ENDBRANCH   4   5
ENDBRANCH   3   4
ENDBRANCH   2   3
ENDBRANCH   1   2
END_RES LYS A 135
BEGIN_RES TYR A 136
REMARK  2 active torsions:
REMARK  status: ('A' for Active; 'I' for Inactive)
REMARK    5  A    between atoms: CA   and  CB  
REMARK    6  A    between atoms: CB   and  CG  
ROOT
ATOM      7  CA  TYR A 136      36.583  36.399   8.994  1.00 26.14     0.191 C 
ENDROOT
BRANCH   7   8
ATOM      8  CB  TYR A 136      37.367  36.835  10.240  1.00 28.16     0.060 C 
BRANCH   8   9
ATOM      9  CG  TYR A 136      36.873  38.143  10.808  1.00 31.88    -0.020 A 
ATOM     10  CD2 TYR A 136      37.113  38.489  12.140  1.00 32.67    -0.002 A 
ATOM     11  CE2 TYR A 136      36.648  39.705  12.659  1.00 33.89     0.027 A 
ATOM     12  CZ  TYR A 136      35.936  40.583  11.837  1.00 34.34     0.131 A 
ATOM     13  OH  TYR A 136      35.472  41.796  12.327  1.00 35.14    -0.190 OA
ATOM     14  CE1 TYR A 136      35.687  40.254  10.513  1.00 35.01     0.027 A 
ATOM     15  CD1 TYR A 136      36.150  39.037  10.009  1.00 33.57    -0.002 A 
ENDBRANCH   8   9
ENDBRANCH   7   8
END_RES TYR A 136
BEGIN_RES ASN A 133
REMARK  2 active torsions:
REMARK  status: ('A' for Active; 'I' for Inactive)
REMARK    7  A    between atoms: CA   and  CB  
REMARK    8  A    between atoms: CB   and  CG  
ROOT
ATOM     16  CA  ASN A 133      31.225  30.257  11.749  1.00 18.15     0.196 C 
ENDROOT
BRANCH  16  17
ATOM     17  CB  ASN A 133      30.092  31.240  11.460  1.00 18.27     0.126 C 
BRANCH  17  18
ATOM     18  CG  ASN A 133      28.750  30.583  11.360  1.00 18.94     0.276 C 
ATOM     19  OD1 ASN A 133      28.568  29.613  10.622  1.00 18.09    -0.269 OA
ATOM     20  ND2 ASN A 133      27.784  31.114  12.109  1.00 18.93    -0.107 N 
ENDBRANCH  17  18
ENDBRANCH  16  17
END_RES ASN A 133
