REMARK VINA RESULT:    -4.394      1.671      2.223
REMARK INTER + INTRA:          -8.423
REMARK INTER:                  -5.181
REMARK INTRA:                  -3.242
REMARK UNBOUND:                -3.259
REMARK SMILES Cc1cn(Cc2cccc(C#N)c2)nn1
REMARK SMILES IDX 6 1 7 2 8 3 9 4 10 5 13 6 5 7 4 8 1 9 2 10 3 11 15 12 14 13
REMARK SMILES IDX 11 14 12 15
REMARK H PARENT
REMARK Flexibility Score: inf
ROOT
ATOM      1  C   UNL     1      35.516  35.106  13.827  1.00  0.00    -0.025 A 
ATOM      2  C   UNL     1      35.637  34.269  12.745  1.00  0.00     0.006 A 
ATOM      3  C   UNL     1      36.778  33.536  12.483  1.00  0.00     0.002 A 
ATOM      4  C   UNL     1      37.840  33.658  13.356  1.00  0.00     0.019 A 
ATOM      5  C   UNL     1      37.765  34.487  14.457  1.00  0.00     0.052 A 
ATOM      6  C   UNL     1      36.593  35.210  14.684  1.00  0.00     0.025 A 
ENDROOT
BRANCH   1   7
ATOM      7  C   UNL     1      34.299  35.891  14.110  1.00  0.00     0.181 C 
BRANCH   7   8
ATOM      8  N   UNL     1      33.471  35.314  15.120  1.00  0.00    -0.248 N 
ATOM      9  C   UNL     1      31.024  32.870  16.272  1.00  0.00     0.070 C 
ATOM     10  C   UNL     1      32.019  33.974  16.079  1.00  0.00     0.080 A 
ATOM     11  C   UNL     1      32.660  34.263  14.909  1.00  0.00     0.134 A 
ATOM     12  N   UNL     1      32.452  34.860  16.994  1.00  0.00    -0.136 NA
ATOM     13  N   UNL     1      33.322  35.654  16.400  1.00  0.00    -0.067 NA
ENDBRANCH   7   8
ENDBRANCH   1   7
BRANCH   5  14
ATOM     14  C   UNL     1      38.905  34.566  15.323  1.00  0.00     0.099 C 
ATOM     15  N   UNL     1      39.811  34.636  16.034  1.00  0.00    -0.192 NA
ENDBRANCH   5  14
TORSDOF 3
BEGIN_RES LYS A 135
REMARK  4 active torsions:
REMARK  status: ('A' for Active; 'I' for Inactive)
REMARK    1  A    between atoms: CA   and  CB  
REMARK    2  A    between atoms: CB   and  CG  
REMARK    3  A    between atoms: CG   and  CD  
REMARK    4  A    between atoms: CD   and  CE  
ROOT
ATOM      1  CA  LYS A 135      33.193  34.663   9.290  1.00 25.02     0.186 C 
ENDROOT
BRANCH   1   2
ATOM      2  CB  LYS A 135      32.060  35.360  10.034  1.00 26.63     0.034 C 
BRANCH   2   3
ATOM      3  CG  LYS A 135      30.731  34.663   9.897  1.00 29.45     0.005 C 
BRANCH   3   4
ATOM      4  CD  LYS A 135      30.323  34.567   8.435  1.00 32.00     0.041 C 
BRANCH   4   5
ATOM      5  CE  LYS A 135      28.813  34.535   8.305  1.00 34.25     0.338 C 
ATOM      6  NZ  LYS A 135      28.190  33.819   9.453  1.00 35.99     0.618 N 
ENDBRANCH   4   5
ENDBRANCH   3   4
ENDBRANCH   2   3
ENDBRANCH   1   2
END_RES LYS A 135
BEGIN_RES TYR A 136
REMARK  2 active torsions:
REMARK  status: ('A' for Active; 'I' for Inactive)
REMARK    5  A    between atoms: CA   and  CB  
REMARK    6  A    between atoms: CB   and  CG  
ROOT
ATOM      7  CA  TYR A 136      36.583  36.399   8.994  1.00 26.14     0.191 C 
ENDROOT
BRANCH   7   8
ATOM      8  CB  TYR A 136      37.367  36.835  10.240  1.00 28.16     0.060 C 
BRANCH   8   9
ATOM      9  CG  TYR A 136      36.730  38.006  10.946  1.00 31.88    -0.020 A 
ATOM     10  CD2 TYR A 136      36.815  38.148  12.333  1.00 32.67    -0.002 A 
ATOM     11  CE2 TYR A 136      36.218  39.239  12.980  1.00 33.89     0.027 A 
ATOM     12  CZ  TYR A 136      35.528  40.196  12.231  1.00 34.34     0.131 A 
ATOM     13  OH  TYR A 136      34.935  41.289  12.850  1.00 35.14    -0.190 OA
ATOM     14  CE1 TYR A 136      35.432  40.070  10.853  1.00 35.01     0.027 A 
ATOM     15  CD1 TYR A 136      36.026  38.976  10.221  1.00 33.57    -0.002 A 
ENDBRANCH   8   9
ENDBRANCH   7   8
END_RES TYR A 136
BEGIN_RES ASN A 133
REMARK  2 active torsions:
REMARK  status: ('A' for Active; 'I' for Inactive)
REMARK    7  A    between atoms: CA   and  CB  
REMARK    8  A    between atoms: CB   and  CG  
ROOT
ATOM     16  CA  ASN A 133      31.225  30.257  11.749  1.00 18.15     0.196 C 
ENDROOT
BRANCH  16  17
ATOM     17  CB  ASN A 133      30.092  31.240  11.460  1.00 18.27     0.126 C 
BRANCH  17  18
ATOM     18  CG  ASN A 133      28.752  30.581  11.344  1.00 18.94     0.276 C 
ATOM     19  OD1 ASN A 133      28.585  29.599  10.619  1.00 18.09    -0.269 OA
ATOM     20  ND2 ASN A 133      27.772  31.123  12.065  1.00 18.93    -0.107 N 
ENDBRANCH  17  18
ENDBRANCH  16  17
END_RES ASN A 133
