REMARK VINA RESULT:    -5.020      1.679      2.259
REMARK INTER + INTRA:          -6.627
REMARK INTER:                  -3.719
REMARK INTRA:                  -2.908
REMARK UNBOUND:                -1.313
REMARK SMILES Cc1cn(-c2ccccc2I)nn1
REMARK SMILES IDX 5 1 6 2 7 3 8 4 9 5 10 6 11 7 4 8 1 9 2 10 3 11 13 12 12 13
REMARK H PARENT
REMARK Flexibility Score: inf
ROOT
ATOM      1  C   UNL     1      33.689  34.976  14.585  1.00  0.00     0.080 A 
ATOM      2  C   UNL     1      34.657  34.652  13.658  1.00  0.00     0.029 A 
ATOM      3  C   UNL     1      35.962  35.111  13.761  1.00  0.00     0.002 A 
ATOM      4  C   UNL     1      36.326  35.927  14.827  1.00  0.00     0.001 A 
ATOM      5  C   UNL     1      35.370  36.263  15.766  1.00  0.00     0.017 A 
ATOM      6  C   UNL     1      34.080  35.793  15.640  1.00  0.00     0.039 A 
ATOM      7  I   UNL     1      32.645  36.326  17.092  1.00  0.00    -0.042 I 
ENDROOT
BRANCH   1   8
ATOM      8  N   UNL     1      32.348  34.493  14.462  1.00  0.00    -0.219 N 
ATOM      9  C   UNL     1      28.894  34.299  13.361  1.00  0.00     0.070 C 
ATOM     10  C   UNL     1      30.262  34.164  13.954  1.00  0.00     0.080 A 
ATOM     11  C   UNL     1      31.345  34.979  13.737  1.00  0.00     0.140 A 
ATOM     12  N   UNL     1      30.664  33.211  14.811  1.00  0.00    -0.135 NA
ATOM     13  N   UNL     1      31.915  33.421  15.105  1.00  0.00    -0.062 NA
ENDBRANCH   1   8
TORSDOF 1
BEGIN_RES LYS A 135
REMARK  4 active torsions:
REMARK  status: ('A' for Active; 'I' for Inactive)
REMARK    1  A    between atoms: CA   and  CB  
REMARK    2  A    between atoms: CB   and  CG  
REMARK    3  A    between atoms: CG   and  CD  
REMARK    4  A    between atoms: CD   and  CE  
ROOT
ATOM      1  CA  LYS A 135      33.193  34.663   9.290  1.00 25.02     0.186 C 
ENDROOT
BRANCH   1   2
ATOM      2  CB  LYS A 135      32.060  35.360  10.034  1.00 26.63     0.034 C 
BRANCH   2   3
ATOM      3  CG  LYS A 135      30.781  34.564  10.066  1.00 29.45     0.005 C 
BRANCH   3   4
ATOM      4  CD  LYS A 135      30.318  34.236   8.655  1.00 32.00     0.041 C 
BRANCH   4   5
ATOM      5  CE  LYS A 135      28.832  34.503   8.507  1.00 34.25     0.338 C 
ATOM      6  NZ  LYS A 135      28.045  33.732   9.509  1.00 35.99     0.618 N 
ENDBRANCH   4   5
ENDBRANCH   3   4
ENDBRANCH   2   3
ENDBRANCH   1   2
END_RES LYS A 135
BEGIN_RES TYR A 136
REMARK  2 active torsions:
REMARK  status: ('A' for Active; 'I' for Inactive)
REMARK    5  A    between atoms: CA   and  CB  
REMARK    6  A    between atoms: CB   and  CG  
ROOT
ATOM      7  CA  TYR A 136      36.583  36.399   8.994  1.00 26.14     0.191 C 
ENDROOT
BRANCH   7   8
ATOM      8  CB  TYR A 136      37.367  36.835  10.240  1.00 28.16     0.060 C 
BRANCH   8   9
ATOM      9  CG  TYR A 136      36.891  38.156  10.792  1.00 31.88    -0.020 A 
ATOM     10  CD2 TYR A 136      37.316  39.366  10.238  1.00 32.67    -0.002 A 
ATOM     11  CE2 TYR A 136      36.870  40.588  10.759  1.00 33.89     0.027 A 
ATOM     12  CZ  TYR A 136      35.990  40.600  11.845  1.00 34.34     0.131 A 
ATOM     13  OH  TYR A 136      35.530  41.798  12.373  1.00 35.14    -0.190 OA
ATOM     14  CE1 TYR A 136      35.559  39.408  12.408  1.00 35.01     0.027 A 
ATOM     15  CD1 TYR A 136      36.015  38.197  11.884  1.00 33.57    -0.002 A 
ENDBRANCH   8   9
ENDBRANCH   7   8
END_RES TYR A 136
BEGIN_RES ASN A 133
REMARK  2 active torsions:
REMARK  status: ('A' for Active; 'I' for Inactive)
REMARK    7  A    between atoms: CA   and  CB  
REMARK    8  A    between atoms: CB   and  CG  
ROOT
ATOM     16  CA  ASN A 133      31.225  30.257  11.749  1.00 18.15     0.196 C 
ENDROOT
BRANCH  16  17
ATOM     17  CB  ASN A 133      30.092  31.240  11.460  1.00 18.27     0.126 C 
BRANCH  17  18
ATOM     18  CG  ASN A 133      28.757  30.578  11.316  1.00 18.94     0.276 C 
ATOM     19  OD1 ASN A 133      28.601  29.612  10.566  1.00 18.09    -0.269 OA
ATOM     20  ND2 ASN A 133      27.767  31.099  12.041  1.00 18.93    -0.107 N 
ENDBRANCH  17  18
ENDBRANCH  16  17
END_RES ASN A 133
