REMARK VINA RESULT:    -4.378      2.160      3.667
REMARK INTER + INTRA:          -8.122
REMARK INTER:                  -5.053
REMARK INTRA:                  -3.070
REMARK UNBOUND:                -3.232
REMARK SMILES Cc1cn(Cc2cccc(Br)c2)nn1
REMARK SMILES IDX 5 1 4 2 1 3 2 4 3 5 14 6 13 7 6 8 7 9 12 10 8 11 10 12 9 13
REMARK SMILES IDX 11 14
REMARK H PARENT
REMARK Flexibility Score: inf
ROOT
ATOM      1  C   UNL     1      33.373  35.914  14.662  1.00  0.00     0.181 C 
ENDROOT
BRANCH   1   2
ATOM      2  N   UNL     1      34.638  35.359  14.258  1.00  0.00    -0.248 N 
ATOM      3  C   UNL     1      37.047  33.504  12.238  1.00  0.00     0.070 C 
ATOM      4  C   UNL     1      36.245  34.295  13.182  1.00  0.00     0.080 A 
ATOM      5  C   UNL     1      34.905  34.606  13.176  1.00  0.00     0.134 A 
ATOM      6  N   UNL     1      36.741  34.887  14.295  1.00  0.00    -0.136 NA
ATOM      7  N   UNL     1      35.764  35.522  14.931  1.00  0.00    -0.067 NA
ENDBRANCH   1   2
BRANCH   1   8
ATOM      8  C   UNL     1      32.709  35.126  15.711  1.00  0.00    -0.025 A 
ATOM      9  C   UNL     1      32.748  35.597  17.014  1.00  0.00     0.006 A 
ATOM     10  C   UNL     1      32.044  33.939  15.496  1.00  0.00     0.021 A 
ATOM     11  C   UNL     1      32.152  34.921  18.058  1.00  0.00     0.002 A 
ATOM     12  C   UNL     1      31.442  33.252  16.537  1.00  0.00     0.018 A 
ATOM     13  C   UNL     1      31.497  33.745  17.826  1.00  0.00     0.016 A 
ATOM     14  Br  UNL     1      30.545  31.622  16.143  1.00  0.00    -0.051 Br
ENDBRANCH   1   8
TORSDOF 2
BEGIN_RES LYS A 135
REMARK  4 active torsions:
REMARK  status: ('A' for Active; 'I' for Inactive)
REMARK    1  A    between atoms: CA   and  CB  
REMARK    2  A    between atoms: CB   and  CG  
REMARK    3  A    between atoms: CG   and  CD  
REMARK    4  A    between atoms: CD   and  CE  
ROOT
ATOM      1  CA  LYS A 135      33.193  34.663   9.290  1.00 25.02     0.186 C 
ENDROOT
BRANCH   1   2
ATOM      2  CB  LYS A 135      32.060  35.360  10.034  1.00 26.63     0.034 C 
BRANCH   2   3
ATOM      3  CG  LYS A 135      30.819  35.550   9.200  1.00 29.45     0.005 C 
BRANCH   3   4
ATOM      4  CD  LYS A 135      30.032  34.253   9.106  1.00 32.00     0.041 C 
BRANCH   4   5
ATOM      5  CE  LYS A 135      28.727  34.474   8.365  1.00 34.25     0.338 C 
ATOM      6  NZ  LYS A 135      28.931  35.331   7.164  1.00 35.99     0.618 N 
ENDBRANCH   4   5
ENDBRANCH   3   4
ENDBRANCH   2   3
ENDBRANCH   1   2
END_RES LYS A 135
BEGIN_RES TYR A 136
REMARK  2 active torsions:
REMARK  status: ('A' for Active; 'I' for Inactive)
REMARK    5  A    between atoms: CA   and  CB  
REMARK    6  A    between atoms: CB   and  CG  
ROOT
ATOM      7  CA  TYR A 136      36.583  36.399   8.994  1.00 26.14     0.191 C 
ENDROOT
BRANCH   7   8
ATOM      8  CB  TYR A 136      37.367  36.835  10.240  1.00 28.16     0.060 C 
BRANCH   8   9
ATOM      9  CG  TYR A 136      36.690  37.957  10.988  1.00 31.88    -0.020 A 
ATOM     10  CD2 TYR A 136      36.531  37.909  12.375  1.00 32.67    -0.002 A 
ATOM     11  CE2 TYR A 136      35.900  38.956  13.060  1.00 33.89     0.027 A 
ATOM     12  CZ  TYR A 136      35.422  40.061  12.351  1.00 34.34     0.131 A 
ATOM     13  OH  TYR A 136      34.800  41.113  13.009  1.00 35.14    -0.190 OA
ATOM     14  CE1 TYR A 136      35.571  40.125  10.973  1.00 35.01     0.027 A 
ATOM     15  CD1 TYR A 136      36.196  39.073  10.301  1.00 33.57    -0.002 A 
ENDBRANCH   8   9
ENDBRANCH   7   8
END_RES TYR A 136
BEGIN_RES ASN A 133
REMARK  2 active torsions:
REMARK  status: ('A' for Active; 'I' for Inactive)
REMARK    7  A    between atoms: CA   and  CB  
REMARK    8  A    between atoms: CB   and  CG  
ROOT
ATOM     16  CA  ASN A 133      31.225  30.257  11.749  1.00 18.15     0.196 C 
ENDROOT
BRANCH  16  17
ATOM     17  CB  ASN A 133      30.092  31.240  11.460  1.00 18.27     0.126 C 
BRANCH  17  18
ATOM     18  CG  ASN A 133      28.748  30.585  11.373  1.00 18.94     0.276 C 
ATOM     19  OD1 ASN A 133      28.565  29.598  10.657  1.00 18.09    -0.269 OA
ATOM     20  ND2 ASN A 133      27.783  31.135  12.108  1.00 18.93    -0.107 N 
ENDBRANCH  17  18
ENDBRANCH  16  17
END_RES ASN A 133
