REMARK VINA RESULT:    -3.641      8.377     14.411
REMARK INTER + INTRA:          -7.103
REMARK INTER:                  -3.870
REMARK INTRA:                  -3.233
REMARK UNBOUND:                -3.249
REMARK SMILES Cc1cn(C2CCN(C)CC2)nn1
REMARK SMILES IDX 5 1 6 2 7 3 8 4 9 5 10 6 11 7 4 8 1 9 2 10 3 11 13 12 12 13
REMARK H PARENT
REMARK Flexibility Score: inf
ROOT
ATOM      1  C   UNL     1      36.007  35.325  13.720  1.00  0.00     0.111 C 
ATOM      2  C   UNL     1      37.100  35.400  14.744  1.00  0.00     0.043 C 
ATOM      3  C   UNL     1      38.065  34.250  14.452  1.00  0.00     0.086 C 
ATOM      4  N   UNL     1      38.477  34.382  13.105  1.00  0.00    -0.306 NA
ATOM      5  C   UNL     1      39.799  34.010  12.794  1.00  0.00     0.105 C 
ATOM      6  C   UNL     1      37.491  34.179  12.118  1.00  0.00     0.086 C 
ATOM      7  C   UNL     1      36.123  34.131  12.809  1.00  0.00     0.043 C 
ENDROOT
BRANCH   1   8
ATOM      8  N   UNL     1      34.744  35.262  14.429  1.00  0.00    -0.249 N 
ATOM      9  C   UNL     1      32.490  36.005  17.142  1.00  0.00     0.070 C 
ATOM     10  C   UNL     1      33.178  35.542  15.915  1.00  0.00     0.080 A 
ATOM     11  C   UNL     1      34.477  35.849  15.593  1.00  0.00     0.134 A 
ATOM     12  N   UNL     1      32.691  34.773  14.930  1.00  0.00    -0.136 NA
ATOM     13  N   UNL     1      33.662  34.624  14.053  1.00  0.00    -0.067 NA
ENDBRANCH   1   8
TORSDOF 1
BEGIN_RES LYS A 135
REMARK  4 active torsions:
REMARK  status: ('A' for Active; 'I' for Inactive)
REMARK    1  A    between atoms: CA   and  CB  
REMARK    2  A    between atoms: CB   and  CG  
REMARK    3  A    between atoms: CG   and  CD  
REMARK    4  A    between atoms: CD   and  CE  
ROOT
ATOM      1  CA  LYS A 135      33.193  34.663   9.290  1.00 25.02     0.186 C 
ENDROOT
BRANCH   1   2
ATOM      2  CB  LYS A 135      32.060  35.360  10.034  1.00 26.63     0.034 C 
BRANCH   2   3
ATOM      3  CG  LYS A 135      30.807  35.518   9.212  1.00 29.45     0.005 C 
BRANCH   3   4
ATOM      4  CD  LYS A 135      30.142  34.170   8.981  1.00 32.00     0.041 C 
BRANCH   4   5
ATOM      5  CE  LYS A 135      28.679  34.351   8.625  1.00 34.25     0.338 C 
ATOM      6  NZ  LYS A 135      27.798  33.689   9.625  1.00 35.99     0.618 N 
ENDBRANCH   4   5
ENDBRANCH   3   4
ENDBRANCH   2   3
ENDBRANCH   1   2
END_RES LYS A 135
BEGIN_RES TYR A 136
REMARK  2 active torsions:
REMARK  status: ('A' for Active; 'I' for Inactive)
REMARK    5  A    between atoms: CA   and  CB  
REMARK    6  A    between atoms: CB   and  CG  
ROOT
ATOM      7  CA  TYR A 136      36.583  36.399   8.994  1.00 26.14     0.191 C 
ENDROOT
BRANCH   7   8
ATOM      8  CB  TYR A 136      37.367  36.835  10.240  1.00 28.16     0.060 C 
BRANCH   8   9
ATOM      9  CG  TYR A 136      36.863  38.135  10.817  1.00 31.88    -0.020 A 
ATOM     10  CD2 TYR A 136      36.124  39.032  10.043  1.00 32.67    -0.002 A 
ATOM     11  CE2 TYR A 136      35.662  40.237  10.588  1.00 33.89     0.027 A 
ATOM     12  CZ  TYR A 136      35.942  40.549  11.920  1.00 34.34     0.131 A 
ATOM     13  OH  TYR A 136      35.489  41.733  12.483  1.00 35.14    -0.190 OA
ATOM     14  CE1 TYR A 136      36.676  39.670  12.704  1.00 35.01     0.027 A 
ATOM     15  CD1 TYR A 136      37.137  38.475  12.148  1.00 33.57    -0.002 A 
ENDBRANCH   8   9
ENDBRANCH   7   8
END_RES TYR A 136
BEGIN_RES ASN A 133
REMARK  2 active torsions:
REMARK  status: ('A' for Active; 'I' for Inactive)
REMARK    7  A    between atoms: CA   and  CB  
REMARK    8  A    between atoms: CB   and  CG  
ROOT
ATOM     16  CA  ASN A 133      31.225  30.257  11.749  1.00 18.15     0.196 C 
ENDROOT
BRANCH  16  17
ATOM     17  CB  ASN A 133      30.092  31.240  11.460  1.00 18.27     0.126 C 
BRANCH  17  18
ATOM     18  CG  ASN A 133      28.750  30.584  11.363  1.00 18.94     0.276 C 
ATOM     19  OD1 ASN A 133      28.564  29.616  10.622  1.00 18.09    -0.269 OA
ATOM     20  ND2 ASN A 133      27.787  31.111  12.118  1.00 18.93    -0.107 N 
ENDBRANCH  17  18
ENDBRANCH  16  17
END_RES ASN A 133
