REMARK VINA RESULT:    -3.235      1.596      2.319
REMARK INTER + INTRA:          -7.024
REMARK INTER:                  -3.877
REMARK INTRA:                  -3.147
REMARK UNBOUND:                -3.222
REMARK SMILES Cc1cn(CCN2CCCC2)nn1
REMARK SMILES IDX 5 1 4 2 1 3 2 4 3 5 13 6 12 7 6 8 7 9 8 10 11 11 9 12 10 13
REMARK H PARENT
REMARK Flexibility Score: inf
ROOT
ATOM      1  C   UNL     1      22.630  35.452  -0.779  1.00  0.00     0.161 C 
ENDROOT
BRANCH   1   2
ATOM      2  N   UNL     1      22.586  34.056  -0.395  1.00  0.00    -0.251 N 
ATOM      3  C   UNL     1      21.957  30.545  -1.168  1.00  0.00     0.070 C 
ATOM      4  C   UNL     1      22.287  31.852  -0.560  1.00  0.00     0.080 A 
ATOM      5  C   UNL     1      22.219  33.051  -1.237  1.00  0.00     0.134 A 
ATOM      6  N   UNL     1      22.696  32.177   0.676  1.00  0.00    -0.136 NA
ATOM      7  N   UNL     1      22.868  33.489   0.754  1.00  0.00    -0.067 NA
ENDBRANCH   1   2
BRANCH   1   8
ATOM      8  C   UNL     1      23.659  35.704  -1.855  1.00  0.00     0.108 C 
BRANCH   8   9
ATOM      9  N   UNL     1      23.480  36.949  -2.527  1.00  0.00    -0.301 NA
ATOM     10  C   UNL     1      24.558  37.358  -3.367  1.00  0.00     0.084 C 
ATOM     11  C   UNL     1      23.449  37.994  -1.502  1.00  0.00     0.084 C 
ATOM     12  C   UNL     1      25.640  37.723  -2.406  1.00  0.00     0.017 C 
ATOM     13  C   UNL     1      24.860  38.459  -1.331  1.00  0.00     0.017 C 
ENDBRANCH   8   9
ENDBRANCH   1   8
TORSDOF 3
BEGIN_RES LYS A 135
REMARK  4 active torsions:
REMARK  status: ('A' for Active; 'I' for Inactive)
REMARK    1  A    between atoms: CA   and  CB  
REMARK    2  A    between atoms: CB   and  CG  
REMARK    3  A    between atoms: CG   and  CD  
REMARK    4  A    between atoms: CD   and  CE  
ROOT
ATOM      1  CA  LYS A 135      33.193  34.663   9.290  1.00 25.02     0.186 C 
ENDROOT
BRANCH   1   2
ATOM      2  CB  LYS A 135      32.060  35.360  10.034  1.00 26.63     0.034 C 
BRANCH   2   3
ATOM      3  CG  LYS A 135      30.704  34.760   9.765  1.00 29.45     0.005 C 
BRANCH   3   4
ATOM      4  CD  LYS A 135      30.483  34.582   8.271  1.00 32.00     0.041 C 
BRANCH   4   5
ATOM      5  CE  LYS A 135      29.022  34.794   7.920  1.00 34.25     0.338 C 
ATOM      6  NZ  LYS A 135      28.827  36.076   7.187  1.00 35.99     0.618 N 
ENDBRANCH   4   5
ENDBRANCH   3   4
ENDBRANCH   2   3
ENDBRANCH   1   2
END_RES LYS A 135
BEGIN_RES TYR A 136
REMARK  2 active torsions:
REMARK  status: ('A' for Active; 'I' for Inactive)
REMARK    5  A    between atoms: CA   and  CB  
REMARK    6  A    between atoms: CB   and  CG  
ROOT
ATOM      7  CA  TYR A 136      36.583  36.399   8.994  1.00 26.14     0.191 C 
ENDROOT
BRANCH   7   8
ATOM      8  CB  TYR A 136      37.367  36.835  10.240  1.00 28.16     0.060 C 
BRANCH   8   9
ATOM      9  CG  TYR A 136      37.228  38.310  10.526  1.00 31.88    -0.020 A 
ATOM     10  CD2 TYR A 136      36.445  39.133   9.715  1.00 32.67    -0.002 A 
ATOM     11  CE2 TYR A 136      36.324  40.503   9.988  1.00 33.89     0.027 A 
ATOM     12  CZ  TYR A 136      36.994  41.053  11.083  1.00 34.34     0.131 A 
ATOM     13  OH  TYR A 136      36.883  42.405  11.377  1.00 35.14    -0.190 OA
ATOM     14  CE1 TYR A 136      37.778  40.250  11.899  1.00 35.01     0.027 A 
ATOM     15  CD1 TYR A 136      37.895  38.889  11.613  1.00 33.57    -0.002 A 
ENDBRANCH   8   9
ENDBRANCH   7   8
END_RES TYR A 136
BEGIN_RES ASN A 133
REMARK  2 active torsions:
REMARK  status: ('A' for Active; 'I' for Inactive)
REMARK    7  A    between atoms: CA   and  CB  
REMARK    8  A    between atoms: CB   and  CG  
ROOT
ATOM     16  CA  ASN A 133      31.225  30.257  11.749  1.00 18.15     0.196 C 
ENDROOT
BRANCH  16  17
ATOM     17  CB  ASN A 133      30.092  31.240  11.460  1.00 18.27     0.126 C 
BRANCH  17  18
ATOM     18  CG  ASN A 133      28.749  30.584  11.365  1.00 18.94     0.276 C 
ATOM     19  OD1 ASN A 133      28.569  29.601  10.644  1.00 18.09    -0.269 OA
ATOM     20  ND2 ASN A 133      27.781  31.129  12.100  1.00 18.93    -0.107 N 
ENDBRANCH  17  18
ENDBRANCH  16  17
END_RES ASN A 133
