REMARK VINA RESULT:   -10.146      2.609      3.579
REMARK INTER + INTRA:          -6.842
REMARK INTER:                  -4.494
REMARK INTRA:                  -2.349
REMARK UNBOUND:                 6.270
REMARK SMILES Cc1cn(C2CCc3ccccc3NC2=O)nn1
REMARK SMILES IDX 14 1 15 2 16 3 5 5 4 6 1 7 2 8 3 9 18 10 17 11 6 12 13 14
REMARK SMILES IDX 8 15 12 16 9 17 11 18 10 19 7 20
REMARK H PARENT 14 4
REMARK Flexibility Score: 90.00
ROOT
ATOM      1  N   UNL     1      38.556  33.556  15.868  1.00  0.00    -0.324 N 
ATOM      2  C   UNL     1      38.902  34.361  14.756  1.00  0.00     0.249 C 
ATOM      3  O   UNL     1      38.205  34.134  13.733  1.00  0.00    -0.272 OA
ATOM      4  H   UNL     1      37.940  32.723  15.714  1.00  0.00     0.170 HD
ENDROOT
BRANCH   2   5
ATOM      5  C   UNL     1      39.932  35.400  14.613  1.00  0.00     0.198 C 
BRANCH   5   6
ATOM      6  N   UNL     1      40.626  35.161  13.360  1.00  0.00    -0.240 N 
ATOM      7  C   UNL     1      42.899  33.361  11.100  1.00  0.00     0.070 C 
ATOM      8  C   UNL     1      41.949  34.240  11.816  1.00  0.00     0.080 A 
ATOM      9  C   UNL     1      41.493  34.135  13.111  1.00  0.00     0.135 A 
ATOM     10  N   UNL     1      41.351  35.326  11.304  1.00  0.00    -0.136 NA
ATOM     11  N   UNL     1      40.558  35.874  12.237  1.00  0.00    -0.066 NA
ENDBRANCH   5   6
BRANCH   5  12
ATOM     12  C   UNL     1      40.956  35.371  15.714  1.00  0.00     0.042 CG0
ATOM     13  G   UNL     1      40.367  35.857  17.035  1.00  0.00     0.000 G0
ENDBRANCH   5  12
ENDBRANCH   2   5
BRANCH   1  14
ATOM     14  C   UNL     1      38.938  33.723  17.228  1.00  0.00     0.044 A 
ATOM     15  C   UNL     1      39.738  34.730  17.773  1.00  0.00    -0.024 A 
ATOM     16  C   UNL     1      38.439  32.757  18.074  1.00  0.00     0.026 A 
ATOM     17  C   UNL     1      39.996  34.718  19.127  1.00  0.00     0.006 A 
ATOM     18  C   UNL     1      38.679  32.717  19.432  1.00  0.00     0.002 A 
ATOM     19  C   UNL     1      39.484  33.740  19.950  1.00  0.00     0.000 A 
BRANCH  15  20
ATOM     20  C   UNL     1      40.371  35.861  17.037  1.00  0.00     0.040 CG0
ATOM     21  G   UNL     1      40.962  35.378  15.715  1.00  0.00     0.000 G0
ENDBRANCH  15  20
ENDBRANCH   1  14
TORSDOF 1
BEGIN_RES LYS A 135
REMARK  4 active torsions:
REMARK  status: ('A' for Active; 'I' for Inactive)
REMARK    1  A    between atoms: CA   and  CB  
REMARK    2  A    between atoms: CB   and  CG  
REMARK    3  A    between atoms: CG   and  CD  
REMARK    4  A    between atoms: CD   and  CE  
ROOT
ATOM      1  CA  LYS A 135      33.193  34.663   9.290  1.00 25.02     0.186 C 
ENDROOT
BRANCH   1   2
ATOM      2  CB  LYS A 135      32.060  35.360  10.034  1.00 26.63     0.034 C 
BRANCH   2   3
ATOM      3  CG  LYS A 135      30.730  34.664   9.895  1.00 29.45     0.005 C 
BRANCH   3   4
ATOM      4  CD  LYS A 135      30.486  34.257   8.451  1.00 32.00     0.041 C 
BRANCH   4   5
ATOM      5  CE  LYS A 135      29.396  35.111   7.833  1.00 34.25     0.338 C 
ATOM      6  NZ  LYS A 135      28.071  34.814   8.444  1.00 35.99     0.618 N 
ENDBRANCH   4   5
ENDBRANCH   3   4
ENDBRANCH   2   3
ENDBRANCH   1   2
END_RES LYS A 135
BEGIN_RES TYR A 136
REMARK  2 active torsions:
REMARK  status: ('A' for Active; 'I' for Inactive)
REMARK    5  A    between atoms: CA   and  CB  
REMARK    6  A    between atoms: CB   and  CG  
ROOT
ATOM      7  CA  TYR A 136      36.583  36.399   8.994  1.00 26.14     0.191 C 
ENDROOT
BRANCH   7   8
ATOM      8  CB  TYR A 136      37.367  36.835  10.240  1.00 28.16     0.060 C 
BRANCH   8   9
ATOM      9  CG  TYR A 136      37.284  38.321  10.487  1.00 31.88    -0.020 A 
ATOM     10  CD2 TYR A 136      36.070  39.004  10.388  1.00 32.67    -0.002 A 
ATOM     11  CE2 TYR A 136      36.004  40.385  10.617  1.00 33.89     0.027 A 
ATOM     12  CZ  TYR A 136      37.165  41.090  10.949  1.00 34.34     0.131 A 
ATOM     13  OH  TYR A 136      37.122  42.456  11.187  1.00 35.14    -0.190 OA
ATOM     14  CE1 TYR A 136      38.379  40.427  11.050  1.00 35.01     0.027 A 
ATOM     15  CD1 TYR A 136      38.434  39.053  10.813  1.00 33.57    -0.002 A 
ENDBRANCH   8   9
ENDBRANCH   7   8
END_RES TYR A 136
BEGIN_RES ASN A 133
REMARK  2 active torsions:
REMARK  status: ('A' for Active; 'I' for Inactive)
REMARK    7  A    between atoms: CA   and  CB  
REMARK    8  A    between atoms: CB   and  CG  
ROOT
ATOM     16  CA  ASN A 133      31.225  30.257  11.749  1.00 18.15     0.196 C 
ENDROOT
BRANCH  16  17
ATOM     17  CB  ASN A 133      30.092  31.240  11.460  1.00 18.27     0.126 C 
BRANCH  17  18
ATOM     18  CG  ASN A 133      28.752  30.582  11.348  1.00 18.94     0.276 C 
ATOM     19  OD1 ASN A 133      28.556  29.665  10.548  1.00 18.09    -0.269 OA
ATOM     20  ND2 ASN A 133      27.803  31.050  12.158  1.00 18.93    -0.107 N 
ENDBRANCH  17  18
ENDBRANCH  16  17
END_RES ASN A 133
