REMARK VINA RESULT:    -3.894      1.574      2.617
REMARK INTER + INTRA:          -7.781
REMARK INTER:                  -4.756
REMARK INTRA:                  -3.025
REMARK UNBOUND:                -3.432
REMARK SMILES Cc1cn(-c2ccccc2C(C)C)nn1
REMARK SMILES IDX 5 1 10 2 9 3 8 4 7 5 6 6 4 7 1 8 2 9 3 10 15 11 14 12 11 13
REMARK SMILES IDX 12 14 13 15
REMARK H PARENT
REMARK Flexibility Score: inf
ROOT
ATOM      1  C   UNL     1      38.315  36.038  14.230  1.00  0.00     0.070 A 
ATOM      2  C   UNL     1      38.251  35.104  13.222  1.00  0.00    -0.020 A 
ATOM      3  C   UNL     1      38.995  35.289  12.063  1.00  0.00     0.006 A 
ATOM      4  C   UNL     1      39.806  36.378  11.861  1.00  0.00     0.000 A 
ATOM      5  C   UNL     1      39.871  37.318  12.871  1.00  0.00     0.002 A 
ATOM      6  C   UNL     1      39.141  37.142  14.019  1.00  0.00     0.029 A 
ENDROOT
BRANCH   1   7
ATOM      7  N   UNL     1      37.578  35.905  15.453  1.00  0.00    -0.220 N 
ATOM      8  C   UNL     1      34.759  36.341  17.757  1.00  0.00     0.070 C 
ATOM      9  C   UNL     1      36.016  36.022  17.054  1.00  0.00     0.080 A 
ATOM     10  C   UNL     1      36.349  36.367  15.740  1.00  0.00     0.140 A 
ATOM     11  N   UNL     1      37.105  35.344  17.506  1.00  0.00    -0.135 NA
ATOM     12  N   UNL     1      37.997  35.293  16.548  1.00  0.00    -0.062 NA
ENDBRANCH   1   7
BRANCH   2  13
ATOM     13  C   UNL     1      37.381  33.917  13.404  1.00  0.00     0.015 C 
ATOM     14  C   UNL     1      38.024  32.701  12.746  1.00  0.00     0.012 C 
ATOM     15  C   UNL     1      36.029  34.141  12.724  1.00  0.00     0.012 C 
ENDBRANCH   2  13
TORSDOF 2
BEGIN_RES LYS A 135
REMARK  4 active torsions:
REMARK  status: ('A' for Active; 'I' for Inactive)
REMARK    1  A    between atoms: CA   and  CB  
REMARK    2  A    between atoms: CB   and  CG  
REMARK    3  A    between atoms: CG   and  CD  
REMARK    4  A    between atoms: CD   and  CE  
ROOT
ATOM      1  CA  LYS A 135      33.193  34.663   9.290  1.00 25.02     0.186 C 
ENDROOT
BRANCH   1   2
ATOM      2  CB  LYS A 135      32.060  35.360  10.034  1.00 26.63     0.034 C 
BRANCH   2   3
ATOM      3  CG  LYS A 135      30.819  35.550   9.201  1.00 29.45     0.005 C 
BRANCH   3   4
ATOM      4  CD  LYS A 135      30.111  34.222   8.982  1.00 32.00     0.041 C 
BRANCH   4   5
ATOM      5  CE  LYS A 135      28.722  34.445   8.415  1.00 34.25     0.338 C 
ATOM      6  NZ  LYS A 135      28.031  35.564   9.114  1.00 35.99     0.618 N 
ENDBRANCH   4   5
ENDBRANCH   3   4
ENDBRANCH   2   3
ENDBRANCH   1   2
END_RES LYS A 135
BEGIN_RES TYR A 136
REMARK  2 active torsions:
REMARK  status: ('A' for Active; 'I' for Inactive)
REMARK    5  A    between atoms: CA   and  CB  
REMARK    6  A    between atoms: CB   and  CG  
ROOT
ATOM      7  CA  TYR A 136      36.583  36.399   8.994  1.00 26.14     0.191 C 
ENDROOT
BRANCH   7   8
ATOM      8  CB  TYR A 136      37.367  36.835  10.240  1.00 28.16     0.060 C 
BRANCH   8   9
ATOM      9  CG  TYR A 136      36.753  38.033  10.922  1.00 31.88    -0.020 A 
ATOM     10  CD2 TYR A 136      35.978  37.891  12.075  1.00 32.67    -0.002 A 
ATOM     11  CE2 TYR A 136      35.411  39.010  12.699  1.00 33.89     0.027 A 
ATOM     12  CZ  TYR A 136      35.622  40.283  12.165  1.00 34.34     0.131 A 
ATOM     13  OH  TYR A 136      35.076  41.407  12.771  1.00 35.14    -0.190 OA
ATOM     14  CE1 TYR A 136      36.388  40.443  11.020  1.00 35.01     0.027 A 
ATOM     15  CD1 TYR A 136      36.942  39.320  10.403  1.00 33.57    -0.002 A 
ENDBRANCH   8   9
ENDBRANCH   7   8
END_RES TYR A 136
BEGIN_RES ASN A 133
REMARK  2 active torsions:
REMARK  status: ('A' for Active; 'I' for Inactive)
REMARK    7  A    between atoms: CA   and  CB  
REMARK    8  A    between atoms: CB   and  CG  
ROOT
ATOM     16  CA  ASN A 133      31.225  30.257  11.749  1.00 18.15     0.196 C 
ENDROOT
BRANCH  16  17
ATOM     17  CB  ASN A 133      30.092  31.240  11.460  1.00 18.27     0.126 C 
BRANCH  17  18
ATOM     18  CG  ASN A 133      28.751  30.582  11.350  1.00 18.94     0.276 C 
ATOM     19  OD1 ASN A 133      28.578  29.606  10.618  1.00 18.09    -0.269 OA
ATOM     20  ND2 ASN A 133      27.777  31.118  12.085  1.00 18.93    -0.107 N 
ENDBRANCH  17  18
ENDBRANCH  16  17
END_RES ASN A 133
