REMARK VINA RESULT:    -6.264      3.340      7.196
REMARK INTER + INTRA:          -8.754
REMARK INTER:                  -7.363
REMARK INTRA:                  -1.391
REMARK UNBOUND:                -1.391
REMARK SMILES Cc1cn(C(c2ccccc2)c2ccccc2)nn1
REMARK SMILES IDX 5 1 4 2 1 3 2 4 3 5 19 6 18 7 6 8 7 9 11 10 8 11 10 12 9 13
REMARK SMILES IDX 12 14 13 15 17 16 14 17 16 18 15 19
REMARK H PARENT
REMARK Flexibility Score: inf
ROOT
ATOM      1  C   UNL     1      26.971  35.779   7.884  1.00  0.00     0.169 C 
ENDROOT
BRANCH   1   2
ATOM      2  N   UNL     1      25.989  36.049   8.933  1.00  0.00    -0.240 N 
ATOM      3  C   UNL     1      22.733  36.033  10.591  1.00  0.00     0.070 C 
ATOM      4  C   UNL     1      24.117  36.160  10.126  1.00  0.00     0.080 A 
ATOM      5  C   UNL     1      24.687  35.713   8.939  1.00  0.00     0.135 A 
ATOM      6  N   UNL     1      25.123  36.757  10.792  1.00  0.00    -0.136 NA
ATOM      7  N   UNL     1      26.222  36.680  10.068  1.00  0.00    -0.066 NA
ENDBRANCH   1   2
BRANCH   1   8
ATOM      8  C   UNL     1      28.163  35.057   8.376  1.00  0.00    -0.019 A 
ATOM      9  C   UNL     1      28.126  34.130   9.382  1.00  0.00     0.006 A 
ATOM     10  C   UNL     1      29.410  35.301   7.804  1.00  0.00     0.006 A 
ATOM     11  C   UNL     1      29.297  33.481   9.790  1.00  0.00     0.000 A 
ATOM     12  C   UNL     1      30.558  34.666   8.203  1.00  0.00     0.000 A 
ATOM     13  C   UNL     1      30.513  33.741   9.210  1.00  0.00     0.000 A 
ENDBRANCH   1   8
BRANCH   1  14
ATOM     14  C   UNL     1      27.264  36.974   7.090  1.00  0.00    -0.019 A 
ATOM     15  C   UNL     1      27.262  38.260   7.583  1.00  0.00     0.006 A 
ATOM     16  C   UNL     1      27.587  36.845   5.752  1.00  0.00     0.006 A 
ATOM     17  C   UNL     1      27.560  39.323   6.787  1.00  0.00     0.000 A 
ATOM     18  C   UNL     1      27.893  37.903   4.925  1.00  0.00     0.000 A 
ATOM     19  C   UNL     1      27.876  39.155   5.461  1.00  0.00     0.000 A 
ENDBRANCH   1  14
TORSDOF 3
BEGIN_RES LYS A 135
REMARK  4 active torsions:
REMARK  status: ('A' for Active; 'I' for Inactive)
REMARK    1  A    between atoms: CA   and  CB  
REMARK    2  A    between atoms: CB   and  CG  
REMARK    3  A    between atoms: CG   and  CD  
REMARK    4  A    between atoms: CD   and  CE  
ROOT
ATOM      1  CA  LYS A 135      33.193  34.663   9.290  1.00 25.02     0.186 C 
ENDROOT
BRANCH   1   2
ATOM      2  CB  LYS A 135      32.060  35.360  10.034  1.00 26.63     0.034 C 
BRANCH   2   3
ATOM      3  CG  LYS A 135      32.503  36.044  11.301  1.00 29.45     0.005 C 
BRANCH   3   4
ATOM      4  CD  LYS A 135      31.549  37.173  11.663  1.00 32.00     0.041 C 
BRANCH   4   5
ATOM      5  CE  LYS A 135      30.132  36.826  11.248  1.00 34.25     0.338 C 
ATOM      6  NZ  LYS A 135      29.549  37.894  10.389  1.00 35.99     0.618 N 
ENDBRANCH   4   5
ENDBRANCH   3   4
ENDBRANCH   2   3
ENDBRANCH   1   2
END_RES LYS A 135
BEGIN_RES TYR A 136
REMARK  2 active torsions:
REMARK  status: ('A' for Active; 'I' for Inactive)
REMARK    5  A    between atoms: CA   and  CB  
REMARK    6  A    between atoms: CB   and  CG  
ROOT
ATOM      7  CA  TYR A 136      36.583  36.399   8.994  1.00 26.14     0.191 C 
ENDROOT
BRANCH   7   8
ATOM      8  CB  TYR A 136      37.367  36.835  10.240  1.00 28.16     0.060 C 
BRANCH   8   9
ATOM      9  CG  TYR A 136      36.466  37.273  11.368  1.00 31.88    -0.020 A 
ATOM     10  CD2 TYR A 136      36.320  36.497  12.520  1.00 32.67    -0.002 A 
ATOM     11  CE2 TYR A 136      35.479  36.912  13.562  1.00 33.89     0.027 A 
ATOM     12  CZ  TYR A 136      34.778  38.115  13.450  1.00 34.34     0.131 A 
ATOM     13  OH  TYR A 136      33.946  38.549  14.472  1.00 35.14    -0.190 OA
ATOM     14  CE1 TYR A 136      34.911  38.898  12.313  1.00 35.01     0.027 A 
ATOM     15  CD1 TYR A 136      35.746  38.471  11.279  1.00 33.57    -0.002 A 
ENDBRANCH   8   9
ENDBRANCH   7   8
END_RES TYR A 136
BEGIN_RES ASN A 133
REMARK  2 active torsions:
REMARK  status: ('A' for Active; 'I' for Inactive)
REMARK    7  A    between atoms: CA   and  CB  
REMARK    8  A    between atoms: CB   and  CG  
ROOT
ATOM     16  CA  ASN A 133      31.225  30.257  11.749  1.00 18.15     0.196 C 
ENDROOT
BRANCH  16  17
ATOM     17  CB  ASN A 133      30.092  31.240  11.460  1.00 18.27     0.126 C 
BRANCH  17  18
ATOM     18  CG  ASN A 133      28.746  30.588  11.390  1.00 18.94     0.276 C 
ATOM     19  OD1 ASN A 133      28.540  29.627  10.646  1.00 18.09    -0.269 OA
ATOM     20  ND2 ASN A 133      27.804  31.111  12.174  1.00 18.93    -0.107 N 
ENDBRANCH  17  18
ENDBRANCH  16  17
END_RES ASN A 133
