REMARK VINA RESULT:    -4.584      2.998      3.872
REMARK INTER + INTRA:          -9.172
REMARK INTER:                  -5.866
REMARK INTRA:                  -3.306
REMARK UNBOUND:                -3.516
REMARK SMILES Cc1cn(C(C)CC(=O)c2ccccc2)nn1
REMARK SMILES IDX 7 1 5 2 6 3 4 4 1 5 2 6 3 7 17 8 16 9 8 10 9 11 10 12 11 13
REMARK SMILES IDX 15 14 12 15 14 16 13 17
REMARK H PARENT
REMARK Flexibility Score: inf
ROOT
ATOM      1  C   UNL     1      36.603  35.471  14.681  1.00  0.00     0.108 C 
ENDROOT
BRANCH   1   2
ATOM      2  C   UNL     1      37.833  34.657  14.518  1.00  0.00     0.114 C 
ATOM      3  C   UNL     1      38.412  34.090  15.752  1.00  0.00     0.034 C 
BRANCH   2   4
ATOM      4  N   UNL     1      38.814  35.451  13.802  1.00  0.00    -0.249 N 
ATOM      5  C   UNL     1      40.595  36.249  10.740  1.00  0.00     0.070 C 
ATOM      6  C   UNL     1      40.049  36.160  12.103  1.00  0.00     0.080 A 
ATOM      7  C   UNL     1      39.079  35.259  12.496  1.00  0.00     0.134 A 
ATOM      8  N   UNL     1      40.341  36.877  13.204  1.00  0.00    -0.136 NA
ATOM      9  N   UNL     1      39.585  36.428  14.201  1.00  0.00    -0.067 NA
ENDBRANCH   2   4
ENDBRANCH   1   2
BRANCH   1  10
ATOM     10  C   UNL     1      35.543  35.202  13.698  1.00  0.00     0.164 C 
ATOM     11  O   UNL     1      35.471  34.178  12.993  1.00  0.00    -0.294 OA
BRANCH  10  12
ATOM     12  C   UNL     1      34.499  36.208  13.539  1.00  0.00     0.018 A 
ATOM     13  C   UNL     1      34.241  37.166  14.515  1.00  0.00     0.012 A 
ATOM     14  C   UNL     1      33.694  36.280  12.410  1.00  0.00     0.012 A 
ATOM     15  C   UNL     1      33.255  38.121  14.373  1.00  0.00     0.001 A 
ATOM     16  C   UNL     1      32.713  37.204  12.230  1.00  0.00     0.001 A 
ATOM     17  C   UNL     1      32.488  38.134  13.217  1.00  0.00     0.000 A 
ENDBRANCH  10  12
ENDBRANCH   1  10
TORSDOF 4
BEGIN_RES LYS A 135
REMARK  4 active torsions:
REMARK  status: ('A' for Active; 'I' for Inactive)
REMARK    1  A    between atoms: CA   and  CB  
REMARK    2  A    between atoms: CB   and  CG  
REMARK    3  A    between atoms: CG   and  CD  
REMARK    4  A    between atoms: CD   and  CE  
ROOT
ATOM      1  CA  LYS A 135      33.193  34.663   9.290  1.00 25.02     0.186 C 
ENDROOT
BRANCH   1   2
ATOM      2  CB  LYS A 135      32.060  35.360  10.034  1.00 26.63     0.034 C 
BRANCH   2   3
ATOM      3  CG  LYS A 135      30.707  34.743   9.786  1.00 29.45     0.005 C 
BRANCH   3   4
ATOM      4  CD  LYS A 135      30.462  34.570   8.296  1.00 32.00     0.041 C 
BRANCH   4   5
ATOM      5  CE  LYS A 135      29.055  35.007   7.933  1.00 34.25     0.338 C 
ATOM      6  NZ  LYS A 135      28.999  35.533   6.541  1.00 35.99     0.618 N 
ENDBRANCH   4   5
ENDBRANCH   3   4
ENDBRANCH   2   3
ENDBRANCH   1   2
END_RES LYS A 135
BEGIN_RES TYR A 136
REMARK  2 active torsions:
REMARK  status: ('A' for Active; 'I' for Inactive)
REMARK    5  A    between atoms: CA   and  CB  
REMARK    6  A    between atoms: CB   and  CG  
ROOT
ATOM      7  CA  TYR A 136      36.583  36.399   8.994  1.00 26.14     0.191 C 
ENDROOT
BRANCH   7   8
ATOM      8  CB  TYR A 136      37.367  36.835  10.240  1.00 28.16     0.060 C 
BRANCH   8   9
ATOM      9  CG  TYR A 136      36.721  37.996  10.955  1.00 31.88    -0.020 A 
ATOM     10  CD2 TYR A 136      35.700  38.737  10.356  1.00 32.67    -0.002 A 
ATOM     11  CE2 TYR A 136      35.107  39.814  11.028  1.00 33.89     0.027 A 
ATOM     12  CZ  TYR A 136      35.541  40.155  12.312  1.00 34.34     0.131 A 
ATOM     13  OH  TYR A 136      34.964  41.214  12.999  1.00 35.14    -0.190 OA
ATOM     14  CE1 TYR A 136      36.556  39.431  12.921  1.00 35.01     0.027 A 
ATOM     15  CD1 TYR A 136      37.142  38.363  12.240  1.00 33.57    -0.002 A 
ENDBRANCH   8   9
ENDBRANCH   7   8
END_RES TYR A 136
BEGIN_RES ASN A 133
REMARK  2 active torsions:
REMARK  status: ('A' for Active; 'I' for Inactive)
REMARK    7  A    between atoms: CA   and  CB  
REMARK    8  A    between atoms: CB   and  CG  
ROOT
ATOM     16  CA  ASN A 133      31.225  30.257  11.749  1.00 18.15     0.196 C 
ENDROOT
BRANCH  16  17
ATOM     17  CB  ASN A 133      30.092  31.240  11.460  1.00 18.27     0.126 C 
BRANCH  17  18
ATOM     18  CG  ASN A 133      28.751  30.583  11.356  1.00 18.94     0.276 C 
ATOM     19  OD1 ASN A 133      28.550  29.665  10.558  1.00 18.09    -0.269 OA
ATOM     20  ND2 ASN A 133      27.807  31.052  12.170  1.00 18.93    -0.107 N 
ENDBRANCH  17  18
ENDBRANCH  16  17
END_RES ASN A 133
