REMARK VINA RESULT:    -5.908      3.040      4.993
REMARK INTER + INTRA:          -9.623
REMARK INTER:                  -6.332
REMARK INTRA:                  -3.291
REMARK UNBOUND:                -2.333
REMARK SMILES Cc1cn(-c2ccc(S(=O)(=O)Nc3nccs3)cc2)nn1
REMARK SMILES IDX 9 1 10 2 11 3 8 4 5 5 6 6 19 7 7 8 18 9 4 10 1 11 2 12 3 13
REMARK SMILES IDX 21 14 20 15 12 16 13 18 14 19 17 20 15 21 16 22
REMARK H PARENT 12 17
REMARK Flexibility Score: inf
ROOT
ATOM      1  S   UNL     1      39.537  34.839  13.861  1.00  0.00     0.263 S 
ATOM      2  O   UNL     1      39.996  36.138  13.284  1.00  0.00    -0.201 OA
ATOM      3  O   UNL     1      39.949  34.785  15.318  1.00  0.00    -0.201 OA
ENDROOT
BRANCH   1   4
ATOM      4  C   UNL     1      37.788  34.827  13.798  1.00  0.00     0.088 A 
ATOM      5  C   UNL     1      35.054  34.871  13.805  1.00  0.00     0.066 A 
ATOM      6  C   UNL     1      35.749  35.497  14.803  1.00  0.00     0.030 A 
ATOM      7  C   UNL     1      35.725  34.226  12.806  1.00  0.00     0.030 A 
ATOM      8  C   UNL     1      37.116  35.489  14.822  1.00  0.00     0.024 A 
ATOM      9  C   UNL     1      37.093  34.204  12.805  1.00  0.00     0.024 A 
BRANCH   5  10
ATOM     10  N   UNL     1      33.613  34.935  13.870  1.00  0.00    -0.220 N 
ATOM     11  C   UNL     1      30.258  35.918  12.752  1.00  0.00     0.070 C 
ATOM     12  C   UNL     1      31.494  35.404  13.395  1.00  0.00     0.080 A 
ATOM     13  C   UNL     1      32.805  35.568  13.001  1.00  0.00     0.140 A 
ATOM     14  N   UNL     1      31.565  34.661  14.513  1.00  0.00    -0.135 NA
ATOM     15  N   UNL     1      32.831  34.395  14.777  1.00  0.00    -0.062 NA
ENDBRANCH   5  10
ENDBRANCH   1   4
BRANCH   1  16
ATOM     16  N   UNL     1      40.202  33.512  13.025  1.00  0.00    -0.255 N 
ATOM     17  H   UNL     1      39.610  32.640  12.938  1.00  0.00     0.182 HD
BRANCH  16  18
ATOM     18  C   UNL     1      41.521  33.587  12.465  1.00  0.00     0.196 A 
ATOM     19  N   UNL     1      42.064  33.493  11.478  1.00  0.00    -0.228 NA
ATOM     20  S   UNL     1      42.950  33.960  13.652  1.00  0.00    -0.105 S 
ATOM     21  C   UNL     1      43.341  33.606  11.191  1.00  0.00     0.125 A 
ATOM     22  C   UNL     1      44.158  33.880  12.239  1.00  0.00     0.089 A 
ENDBRANCH  16  18
ENDBRANCH   1  16
TORSDOF 4
BEGIN_RES LYS A 135
REMARK  4 active torsions:
REMARK  status: ('A' for Active; 'I' for Inactive)
REMARK    1  A    between atoms: CA   and  CB  
REMARK    2  A    between atoms: CB   and  CG  
REMARK    3  A    between atoms: CG   and  CD  
REMARK    4  A    between atoms: CD   and  CE  
ROOT
ATOM      1  CA  LYS A 135      33.193  34.663   9.290  1.00 25.02     0.186 C 
ENDROOT
BRANCH   1   2
ATOM      2  CB  LYS A 135      32.060  35.360  10.034  1.00 26.63     0.034 C 
BRANCH   2   3
ATOM      3  CG  LYS A 135      30.851  35.630   9.175  1.00 29.45     0.005 C 
BRANCH   3   4
ATOM      4  CD  LYS A 135      30.281  34.330   8.629  1.00 32.00     0.041 C 
BRANCH   4   5
ATOM      5  CE  LYS A 135      28.775  34.431   8.480  1.00 34.25     0.338 C 
ATOM      6  NZ  LYS A 135      28.407  35.228   7.277  1.00 35.99     0.618 N 
ENDBRANCH   4   5
ENDBRANCH   3   4
ENDBRANCH   2   3
ENDBRANCH   1   2
END_RES LYS A 135
BEGIN_RES TYR A 136
REMARK  2 active torsions:
REMARK  status: ('A' for Active; 'I' for Inactive)
REMARK    5  A    between atoms: CA   and  CB  
REMARK    6  A    between atoms: CB   and  CG  
ROOT
ATOM      7  CA  TYR A 136      36.583  36.399   8.994  1.00 26.14     0.191 C 
ENDROOT
BRANCH   7   8
ATOM      8  CB  TYR A 136      37.367  36.835  10.240  1.00 28.16     0.060 C 
BRANCH   8   9
ATOM      9  CG  TYR A 136      36.749  38.028  10.926  1.00 31.88    -0.020 A 
ATOM     10  CD2 TYR A 136      36.732  38.133  12.319  1.00 32.67    -0.002 A 
ATOM     11  CE2 TYR A 136      36.154  39.245  12.947  1.00 33.89     0.027 A 
ATOM     12  CZ  TYR A 136      35.587  40.261  12.174  1.00 34.34     0.131 A 
ATOM     13  OH  TYR A 136      35.015  41.374  12.774  1.00 35.14    -0.190 OA
ATOM     14  CE1 TYR A 136      35.594  40.173  10.789  1.00 35.01     0.027 A 
ATOM     15  CD1 TYR A 136      36.167  39.058  10.176  1.00 33.57    -0.002 A 
ENDBRANCH   8   9
ENDBRANCH   7   8
END_RES TYR A 136
BEGIN_RES ASN A 133
REMARK  2 active torsions:
REMARK  status: ('A' for Active; 'I' for Inactive)
REMARK    7  A    between atoms: CA   and  CB  
REMARK    8  A    between atoms: CB   and  CG  
ROOT
ATOM     16  CA  ASN A 133      31.225  30.257  11.749  1.00 18.15     0.196 C 
ENDROOT
BRANCH  16  17
ATOM     17  CB  ASN A 133      30.092  31.240  11.460  1.00 18.27     0.126 C 
BRANCH  17  18
ATOM     18  CG  ASN A 133      28.756  30.579  11.321  1.00 18.94     0.276 C 
ATOM     19  OD1 ASN A 133      28.596  29.614  10.571  1.00 18.09    -0.269 OA
ATOM     20  ND2 ASN A 133      27.770  31.098  12.051  1.00 18.93    -0.107 N 
ENDBRANCH  17  18
ENDBRANCH  16  17
END_RES ASN A 133
