REMARK VINA RESULT:    -3.808      3.481      8.608
REMARK INTER + INTRA:          -7.499
REMARK INTER:                  -5.907
REMARK INTRA:                  -1.592
REMARK UNBOUND:                -3.245
REMARK SMILES Cc1cn(CC2=CC[C@H]3C[C@@H]2C3(C)C)nn1
REMARK SMILES IDX 5 1 4 2 1 3 2 4 3 5 16 6 15 7 6 8 7 9 11 10 8 11 10 12 12 13
REMARK SMILES IDX 9 14 13 15 14 16
REMARK H PARENT
REMARK Flexibility Score: inf
ROOT
ATOM      1  C   UNL     1      26.620  38.151   8.623  1.00  0.00     0.177 C 
ENDROOT
BRANCH   1   2
ATOM      2  N   UNL     1      25.261  37.698   8.811  1.00  0.00    -0.248 N 
ATOM      3  C   UNL     1      21.853  36.818   7.782  1.00  0.00     0.070 C 
ATOM      4  C   UNL     1      23.145  37.103   8.451  1.00  0.00     0.080 A 
ATOM      5  C   UNL     1      24.325  37.570   7.856  1.00  0.00     0.134 A 
ATOM      6  N   UNL     1      23.457  36.977   9.755  1.00  0.00    -0.136 NA
ATOM      7  N   UNL     1      24.719  37.334   9.959  1.00  0.00    -0.067 NA
ENDBRANCH   1   2
BRANCH   1   8
ATOM      8  C   UNL     1      27.493  37.078   8.115  1.00  0.00    -0.049 C 
ATOM      9  C   UNL     1      27.694  36.823   6.834  1.00  0.00    -0.025 C 
ATOM     10  C   UNL     1      28.200  36.215   9.092  1.00  0.00     0.023 C 
ATOM     11  C   UNL     1      28.544  35.639   6.440  1.00  0.00     0.031 C 
ATOM     12  C   UNL     1      29.654  36.174   8.586  1.00  0.00     0.013 C 
ATOM     13  C   UNL     1      28.131  34.754   8.701  1.00  0.00    -0.026 C 
ATOM     14  C   UNL     1      29.174  35.046   7.662  1.00  0.00    -0.000 C 
ATOM     15  C   UNL     1      26.810  34.265   8.218  1.00  0.00     0.012 C 
ATOM     16  C   UNL     1      28.612  33.906   9.866  1.00  0.00     0.012 C 
ENDBRANCH   1   8
TORSDOF 2
BEGIN_RES LYS A 135
REMARK  4 active torsions:
REMARK  status: ('A' for Active; 'I' for Inactive)
REMARK    1  A    between atoms: CA   and  CB  
REMARK    2  A    between atoms: CB   and  CG  
REMARK    3  A    between atoms: CG   and  CD  
REMARK    4  A    between atoms: CD   and  CE  
ROOT
ATOM      1  CA  LYS A 135      33.193  34.663   9.290  1.00 25.02     0.186 C 
ENDROOT
BRANCH   1   2
ATOM      2  CB  LYS A 135      32.060  35.360  10.034  1.00 26.63     0.034 C 
BRANCH   2   3
ATOM      3  CG  LYS A 135      32.205  35.313  11.533  1.00 29.45     0.005 C 
BRANCH   3   4
ATOM      4  CD  LYS A 135      30.864  35.553  12.210  1.00 32.00     0.041 C 
BRANCH   4   5
ATOM      5  CE  LYS A 135      30.940  35.201  13.683  1.00 34.25     0.338 C 
ATOM      6  NZ  LYS A 135      30.447  33.818  13.930  1.00 35.99     0.618 N 
ENDBRANCH   4   5
ENDBRANCH   3   4
ENDBRANCH   2   3
ENDBRANCH   1   2
END_RES LYS A 135
BEGIN_RES TYR A 136
REMARK  2 active torsions:
REMARK  status: ('A' for Active; 'I' for Inactive)
REMARK    5  A    between atoms: CA   and  CB  
REMARK    6  A    between atoms: CB   and  CG  
ROOT
ATOM      7  CA  TYR A 136      36.583  36.399   8.994  1.00 26.14     0.191 C 
ENDROOT
BRANCH   7   8
ATOM      8  CB  TYR A 136      37.367  36.835  10.240  1.00 28.16     0.060 C 
BRANCH   8   9
ATOM      9  CG  TYR A 136      37.197  38.302  10.548  1.00 31.88    -0.020 A 
ATOM     10  CD2 TYR A 136      38.277  39.186  10.478  1.00 32.67    -0.002 A 
ATOM     11  CE2 TYR A 136      38.109  40.547  10.768  1.00 33.89     0.027 A 
ATOM     12  CZ  TYR A 136      36.849  41.028  11.132  1.00 34.34     0.131 A 
ATOM     13  OH  TYR A 136      36.658  42.373  11.417  1.00 35.14    -0.190 OA
ATOM     14  CE1 TYR A 136      35.766  40.164  11.208  1.00 35.01     0.027 A 
ATOM     15  CD1 TYR A 136      35.947  38.810  10.923  1.00 33.57    -0.002 A 
ENDBRANCH   8   9
ENDBRANCH   7   8
END_RES TYR A 136
BEGIN_RES ASN A 133
REMARK  2 active torsions:
REMARK  status: ('A' for Active; 'I' for Inactive)
REMARK    7  A    between atoms: CA   and  CB  
REMARK    8  A    between atoms: CB   and  CG  
ROOT
ATOM     16  CA  ASN A 133      31.225  30.257  11.749  1.00 18.15     0.196 C 
ENDROOT
BRANCH  16  17
ATOM     17  CB  ASN A 133      30.092  31.240  11.460  1.00 18.27     0.126 C 
BRANCH  17  18
ATOM     18  CG  ASN A 133      28.748  30.585  11.372  1.00 18.94     0.276 C 
ATOM     19  OD1 ASN A 133      28.554  29.627  10.622  1.00 18.09    -0.269 OA
ATOM     20  ND2 ASN A 133      27.796  31.103  12.146  1.00 18.93    -0.107 N 
ENDBRANCH  17  18
ENDBRANCH  16  17
END_RES ASN A 133
