REMARK VINA RESULT:    -3.601      2.375      3.857
REMARK INTER + INTRA:          -8.295
REMARK INTER:                  -5.093
REMARK INTRA:                  -3.203
REMARK UNBOUND:                -3.327
REMARK SMILES Cc1cn(CCCCCC(=O)O)nn1
REMARK SMILES IDX 7 1 6 2 5 3 4 4 1 5 2 6 3 7 14 8 13 9 8 10 9 11 10 12 11 13
REMARK SMILES IDX 12 14
REMARK H PARENT 12 15
REMARK Flexibility Score: inf
ROOT
ATOM      1  C   UNL     1      32.187  34.235  15.600  1.00  0.00     0.002 C 
ENDROOT
BRANCH   1   2
ATOM      2  C   UNL     1      31.572  32.854  15.490  1.00  0.00     0.024 C 
BRANCH   2   3
ATOM      3  C   UNL     1      30.915  32.561  16.838  1.00  0.00     0.146 C 
BRANCH   3   4
ATOM      4  N   UNL     1      29.852  31.562  16.662  1.00  0.00    -0.252 N 
ATOM      5  C   UNL     1      27.269  29.294  17.949  1.00  0.00     0.070 C 
ATOM      6  C   UNL     1      28.240  30.117  17.159  1.00  0.00     0.080 A 
ATOM      7  C   UNL     1      29.158  31.014  17.680  1.00  0.00     0.134 A 
ATOM      8  N   UNL     1      28.416  30.161  15.835  1.00  0.00    -0.136 NA
ATOM      9  N   UNL     1      29.388  31.032  15.557  1.00  0.00    -0.067 NA
ENDBRANCH   3   4
ENDBRANCH   2   3
ENDBRANCH   1   2
BRANCH   1  10
ATOM     10  C   UNL     1      32.807  34.660  14.280  1.00  0.00     0.012 C 
BRANCH  10  11
ATOM     11  C   UNL     1      34.157  35.251  14.582  1.00  0.00     0.122 C 
BRANCH  11  12
ATOM     12  C   UNL     1      35.179  34.819  13.602  1.00  0.00     0.303 C 
ATOM     13  O   UNL     1      36.203  35.529  13.453  1.00  0.00    -0.252 OA
BRANCH  12  14
ATOM     14  O   UNL     1      35.054  33.668  12.845  1.00  0.00    -0.481 OA
ATOM     15  H   UNL     1      34.179  33.170  12.741  1.00  0.00     0.296 HD
ENDBRANCH  12  14
ENDBRANCH  11  12
ENDBRANCH  10  11
ENDBRANCH   1  10
TORSDOF 7
BEGIN_RES LYS A 135
REMARK  4 active torsions:
REMARK  status: ('A' for Active; 'I' for Inactive)
REMARK    1  A    between atoms: CA   and  CB  
REMARK    2  A    between atoms: CB   and  CG  
REMARK    3  A    between atoms: CG   and  CD  
REMARK    4  A    between atoms: CD   and  CE  
ROOT
ATOM      1  CA  LYS A 135      33.193  34.663   9.290  1.00 25.02     0.186 C 
ENDROOT
BRANCH   1   2
ATOM      2  CB  LYS A 135      32.060  35.360  10.034  1.00 26.63     0.034 C 
BRANCH   2   3
ATOM      3  CG  LYS A 135      30.722  34.690   9.858  1.00 29.45     0.005 C 
BRANCH   3   4
ATOM      4  CD  LYS A 135      30.315  34.680   8.392  1.00 32.00     0.041 C 
BRANCH   4   5
ATOM      5  CE  LYS A 135      28.810  34.556   8.258  1.00 34.25     0.338 C 
ATOM      6  NZ  LYS A 135      28.224  33.840   9.425  1.00 35.99     0.618 N 
ENDBRANCH   4   5
ENDBRANCH   3   4
ENDBRANCH   2   3
ENDBRANCH   1   2
END_RES LYS A 135
BEGIN_RES TYR A 136
REMARK  2 active torsions:
REMARK  status: ('A' for Active; 'I' for Inactive)
REMARK    5  A    between atoms: CA   and  CB  
REMARK    6  A    between atoms: CB   and  CG  
ROOT
ATOM      7  CA  TYR A 136      36.583  36.399   8.994  1.00 26.14     0.191 C 
ENDROOT
BRANCH   7   8
ATOM      8  CB  TYR A 136      37.367  36.835  10.240  1.00 28.16     0.060 C 
BRANCH   8   9
ATOM      9  CG  TYR A 136      37.189  38.300  10.555  1.00 31.88    -0.020 A 
ATOM     10  CD2 TYR A 136      36.495  39.147   9.687  1.00 32.67    -0.002 A 
ATOM     11  CE2 TYR A 136      36.336  40.506   9.988  1.00 33.89     0.027 A 
ATOM     12  CZ  TYR A 136      36.877  41.024  11.167  1.00 34.34     0.131 A 
ATOM     13  OH  TYR A 136      36.726  42.365  11.489  1.00 35.14    -0.190 OA
ATOM     14  CE1 TYR A 136      37.570  40.197  12.040  1.00 35.01     0.027 A 
ATOM     15  CD1 TYR A 136      37.727  38.846  11.726  1.00 33.57    -0.002 A 
ENDBRANCH   8   9
ENDBRANCH   7   8
END_RES TYR A 136
BEGIN_RES ASN A 133
REMARK  2 active torsions:
REMARK  status: ('A' for Active; 'I' for Inactive)
REMARK    7  A    between atoms: CA   and  CB  
REMARK    8  A    between atoms: CB   and  CG  
ROOT
ATOM     16  CA  ASN A 133      31.225  30.257  11.749  1.00 18.15     0.196 C 
ENDROOT
BRANCH  16  17
ATOM     17  CB  ASN A 133      30.092  31.240  11.460  1.00 18.27     0.126 C 
BRANCH  17  18
ATOM     18  CG  ASN A 133      28.749  30.584  11.368  1.00 18.94     0.276 C 
ATOM     19  OD1 ASN A 133      28.563  29.610  10.636  1.00 18.09    -0.269 OA
ATOM     20  ND2 ASN A 133      27.786  31.120  12.116  1.00 18.93    -0.107 N 
ENDBRANCH  17  18
ENDBRANCH  16  17
END_RES ASN A 133
