REMARK VINA RESULT:    -3.028      5.720      7.078
REMARK INTER + INTRA:          -6.895
REMARK INTER:                  -3.533
REMARK INTRA:                  -3.362
REMARK UNBOUND:                -3.424
REMARK SMILES Cc1cn(CC(=O)O)nn1
REMARK SMILES IDX 5 1 4 2 1 3 2 4 3 5 10 6 9 7 6 8 7 9 8 10
REMARK H PARENT 8 11
REMARK Flexibility Score: inf
ROOT
ATOM      1  C   UNL     1      38.455  34.647  13.169  1.00  0.00     0.268 C 
ENDROOT
BRANCH   1   2
ATOM      2  N   UNL     1      39.772  34.628  12.607  1.00  0.00    -0.241 N 
ATOM      3  C   UNL     1      42.784  35.786  10.856  1.00  0.00     0.070 C 
ATOM      4  C   UNL     1      41.682  35.144  11.582  1.00  0.00     0.080 A 
ATOM      5  C   UNL     1      40.439  35.601  11.939  1.00  0.00     0.134 A 
ATOM      6  N   UNL     1      41.735  33.871  12.058  1.00  0.00    -0.136 NA
ATOM      7  N   UNL     1      40.597  33.599  12.654  1.00  0.00    -0.067 NA
ENDBRANCH   1   2
BRANCH   1   8
ATOM      8  C   UNL     1      37.725  33.395  12.806  1.00  0.00     0.325 C 
ATOM      9  O   UNL     1      36.978  33.338  11.788  1.00  0.00    -0.250 OA
BRANCH   8  10
ATOM     10  O   UNL     1      37.832  32.244  13.562  1.00  0.00    -0.480 OA
ATOM     11  H   UNL     1      37.138  31.531  13.611  1.00  0.00     0.296 HD
ENDBRANCH   8  10
ENDBRANCH   1   8
TORSDOF 3
BEGIN_RES LYS A 135
REMARK  4 active torsions:
REMARK  status: ('A' for Active; 'I' for Inactive)
REMARK    1  A    between atoms: CA   and  CB  
REMARK    2  A    between atoms: CB   and  CG  
REMARK    3  A    between atoms: CG   and  CD  
REMARK    4  A    between atoms: CD   and  CE  
ROOT
ATOM      1  CA  LYS A 135      33.193  34.663   9.290  1.00 25.02     0.186 C 
ENDROOT
BRANCH   1   2
ATOM      2  CB  LYS A 135      32.060  35.360  10.034  1.00 26.63     0.034 C 
BRANCH   2   3
ATOM      3  CG  LYS A 135      30.731  34.662   9.899  1.00 29.45     0.005 C 
BRANCH   3   4
ATOM      4  CD  LYS A 135      30.347  34.518   8.434  1.00 32.00     0.041 C 
BRANCH   4   5
ATOM      5  CE  LYS A 135      28.841  34.577   8.270  1.00 34.25     0.338 C 
ATOM      6  NZ  LYS A 135      28.152  33.879   9.391  1.00 35.99     0.618 N 
ENDBRANCH   4   5
ENDBRANCH   3   4
ENDBRANCH   2   3
ENDBRANCH   1   2
END_RES LYS A 135
BEGIN_RES TYR A 136
REMARK  2 active torsions:
REMARK  status: ('A' for Active; 'I' for Inactive)
REMARK    5  A    between atoms: CA   and  CB  
REMARK    6  A    between atoms: CB   and  CG  
ROOT
ATOM      7  CA  TYR A 136      36.583  36.399   8.994  1.00 26.14     0.191 C 
ENDROOT
BRANCH   7   8
ATOM      8  CB  TYR A 136      37.367  36.835  10.240  1.00 28.16     0.060 C 
BRANCH   8   9
ATOM      9  CG  TYR A 136      37.209  38.305  10.540  1.00 31.88    -0.020 A 
ATOM     10  CD2 TYR A 136      37.689  38.856  11.730  1.00 32.67    -0.002 A 
ATOM     11  CE2 TYR A 136      37.535  40.223  12.000  1.00 33.89     0.027 A 
ATOM     12  CZ  TYR A 136      36.894  41.046  11.071  1.00 34.34     0.131 A 
ATOM     13  OH  TYR A 136      36.737  42.403  11.314  1.00 35.14    -0.190 OA
ATOM     14  CE1 TYR A 136      36.410  40.515   9.884  1.00 35.01     0.027 A 
ATOM     15  CD1 TYR A 136      36.563  39.151   9.629  1.00 33.57    -0.002 A 
ENDBRANCH   8   9
ENDBRANCH   7   8
END_RES TYR A 136
BEGIN_RES ASN A 133
REMARK  2 active torsions:
REMARK  status: ('A' for Active; 'I' for Inactive)
REMARK    7  A    between atoms: CA   and  CB  
REMARK    8  A    between atoms: CB   and  CG  
ROOT
ATOM     16  CA  ASN A 133      31.225  30.257  11.749  1.00 18.15     0.196 C 
ENDROOT
BRANCH  16  17
ATOM     17  CB  ASN A 133      30.092  31.240  11.460  1.00 18.27     0.126 C 
BRANCH  17  18
ATOM     18  CG  ASN A 133      28.753  30.581  11.341  1.00 18.94     0.276 C 
ATOM     19  OD1 ASN A 133      28.588  29.596  10.620  1.00 18.09    -0.269 OA
ATOM     20  ND2 ASN A 133      27.770  31.126  12.057  1.00 18.93    -0.107 N 
ENDBRANCH  17  18
ENDBRANCH  16  17
END_RES ASN A 133
