REMARK VINA RESULT:    -4.554      8.462     14.643
REMARK INTER + INTRA:          -8.700
REMARK INTER:                  -5.363
REMARK INTRA:                  -3.337
REMARK UNBOUND:                -3.214
REMARK SMILES Cc1cn(-c2cccc(C=CC(=O)O)c2)nn1
REMARK SMILES IDX 10 1 11 2 9 3 5 4 15 5 6 6 7 7 8 8 4 9 1 10 2 11 3 12 17 13
REMARK SMILES IDX 16 14 12 15 13 16 14 17
REMARK H PARENT 14 18
REMARK Flexibility Score: inf
ROOT
ATOM      1  C   UNL     1      22.626  31.986   0.696  1.00  0.00     0.015 C 
ATOM      2  C   UNL     1      22.728  30.744   0.512  1.00  0.00     0.094 C 
ENDROOT
BRANCH   1   3
ATOM      3  C   UNL     1      22.262  33.091  -0.132  1.00  0.00    -0.023 A 
ATOM      4  C   UNL     1      22.584  35.243  -1.187  1.00  0.00     0.067 A 
ATOM      5  C   UNL     1      23.056  34.157  -0.438  1.00  0.00     0.036 A 
ATOM      6  C   UNL     1      21.281  35.219  -1.621  1.00  0.00     0.028 A 
ATOM      7  C   UNL     1      20.463  34.150  -1.325  1.00  0.00     0.003 A 
ATOM      8  C   UNL     1      20.928  33.098  -0.596  1.00  0.00     0.008 A 
BRANCH   4   9
ATOM      9  N   UNL     1      23.444  36.335  -1.481  1.00  0.00    -0.220 N 
ATOM     10  C   UNL     1      24.607  39.832  -1.310  1.00  0.00     0.070 C 
ATOM     11  C   UNL     1      24.344  38.382  -1.533  1.00  0.00     0.080 A 
ATOM     12  C   UNL     1      23.317  37.610  -1.032  1.00  0.00     0.140 A 
ATOM     13  N   UNL     1      25.076  37.530  -2.286  1.00  0.00    -0.135 NA
ATOM     14  N   UNL     1      24.534  36.322  -2.247  1.00  0.00    -0.062 NA
ENDBRANCH   4   9
ENDBRANCH   1   3
BRANCH   2  15
ATOM     15  C   UNL     1      22.550  29.838  -0.562  1.00  0.00     0.328 C 
ATOM     16  O   UNL     1      22.603  30.061  -1.788  1.00  0.00    -0.247 OA
BRANCH  15  17
ATOM     17  O   UNL     1      22.266  28.459  -0.252  1.00  0.00    -0.478 OA
ATOM     18  H   UNL     1      21.652  28.315   0.551  1.00  0.00     0.297 HD
ENDBRANCH  15  17
ENDBRANCH   2  15
TORSDOF 4
BEGIN_RES LYS A 135
REMARK  4 active torsions:
REMARK  status: ('A' for Active; 'I' for Inactive)
REMARK    1  A    between atoms: CA   and  CB  
REMARK    2  A    between atoms: CB   and  CG  
REMARK    3  A    between atoms: CG   and  CD  
REMARK    4  A    between atoms: CD   and  CE  
ROOT
ATOM      1  CA  LYS A 135      33.193  34.663   9.290  1.00 25.02     0.186 C 
ENDROOT
BRANCH   1   2
ATOM      2  CB  LYS A 135      32.060  35.360  10.034  1.00 26.63     0.034 C 
BRANCH   2   3
ATOM      3  CG  LYS A 135      30.789  35.469   9.231  1.00 29.45     0.005 C 
BRANCH   3   4
ATOM      4  CD  LYS A 135      30.191  34.093   8.984  1.00 32.00     0.041 C 
BRANCH   4   5
ATOM      5  CE  LYS A 135      28.678  34.175   8.918  1.00 34.25     0.338 C 
ATOM      6  NZ  LYS A 135      28.235  34.983   7.748  1.00 35.99     0.618 N 
ENDBRANCH   4   5
ENDBRANCH   3   4
ENDBRANCH   2   3
ENDBRANCH   1   2
END_RES LYS A 135
BEGIN_RES TYR A 136
REMARK  2 active torsions:
REMARK  status: ('A' for Active; 'I' for Inactive)
REMARK    5  A    between atoms: CA   and  CB  
REMARK    6  A    between atoms: CB   and  CG  
ROOT
ATOM      7  CA  TYR A 136      36.583  36.399   8.994  1.00 26.14     0.191 C 
ENDROOT
BRANCH   7   8
ATOM      8  CB  TYR A 136      37.367  36.835  10.240  1.00 28.16     0.060 C 
BRANCH   8   9
ATOM      9  CG  TYR A 136      37.311  38.325  10.469  1.00 31.88    -0.020 A 
ATOM     10  CD2 TYR A 136      38.172  38.951  11.372  1.00 32.67    -0.002 A 
ATOM     11  CE2 TYR A 136      38.111  40.336  11.579  1.00 33.89     0.027 A 
ATOM     12  CZ  TYR A 136      37.178  41.102  10.875  1.00 34.34     0.131 A 
ATOM     13  OH  TYR A 136      37.104  42.476  11.058  1.00 35.14    -0.190 OA
ATOM     14  CE1 TYR A 136      36.314  40.496   9.975  1.00 35.01     0.027 A 
ATOM     15  CD1 TYR A 136      36.380  39.115   9.782  1.00 33.57    -0.002 A 
ENDBRANCH   8   9
ENDBRANCH   7   8
END_RES TYR A 136
BEGIN_RES ASN A 133
REMARK  2 active torsions:
REMARK  status: ('A' for Active; 'I' for Inactive)
REMARK    7  A    between atoms: CA   and  CB  
REMARK    8  A    between atoms: CB   and  CG  
ROOT
ATOM     16  CA  ASN A 133      31.225  30.257  11.749  1.00 18.15     0.196 C 
ENDROOT
BRANCH  16  17
ATOM     17  CB  ASN A 133      30.092  31.240  11.460  1.00 18.27     0.126 C 
BRANCH  17  18
ATOM     18  CG  ASN A 133      28.757  30.578  11.313  1.00 18.94     0.276 C 
ATOM     19  OD1 ASN A 133      28.602  29.612  10.563  1.00 18.09    -0.269 OA
ATOM     20  ND2 ASN A 133      27.766  31.098  12.037  1.00 18.93    -0.107 N 
ENDBRANCH  17  18
ENDBRANCH  16  17
END_RES ASN A 133
