REMARK VINA RESULT:    -5.039      5.983      7.489
REMARK INTER + INTRA:          -6.647
REMARK INTER:                  -3.646
REMARK INTRA:                  -3.001
REMARK UNBOUND:                -1.313
REMARK SMILES Cc1cn(-c2ccccc2I)nn1
REMARK SMILES IDX 5 1 6 2 7 3 8 4 9 5 10 6 11 7 4 8 1 9 2 10 3 11 13 12 12 13
REMARK H PARENT
REMARK Flexibility Score: inf
ROOT
ATOM      1  C   UNL     1      39.525  36.982   4.329  1.00  0.00     0.080 A 
ATOM      2  C   UNL     1      39.931  35.667   4.238  1.00  0.00     0.029 A 
ATOM      3  C   UNL     1      41.159  35.238   4.718  1.00  0.00     0.002 A 
ATOM      4  C   UNL     1      42.025  36.149   5.316  1.00  0.00     0.001 A 
ATOM      5  C   UNL     1      41.636  37.471   5.416  1.00  0.00     0.017 A 
ATOM      6  C   UNL     1      40.410  37.871   4.931  1.00  0.00     0.039 A 
ATOM      7  I   UNL     1      39.847  39.897   5.101  1.00  0.00    -0.042 I 
ENDROOT
BRANCH   1   8
ATOM      8  N   UNL     1      38.255  37.407   3.828  1.00  0.00    -0.219 N 
ATOM      9  C   UNL     1      35.723  38.477   1.455  1.00  0.00     0.070 C 
ATOM     10  C   UNL     1      36.576  38.057   2.612  1.00  0.00     0.080 A 
ATOM     11  C   UNL     1      37.902  37.706   2.581  1.00  0.00     0.140 A 
ATOM     12  N   UNL     1      36.181  37.954   3.891  1.00  0.00    -0.135 NA
ATOM     13  N   UNL     1      37.197  37.563   4.606  1.00  0.00    -0.062 NA
ENDBRANCH   1   8
TORSDOF 1
BEGIN_RES LYS A 135
REMARK  4 active torsions:
REMARK  status: ('A' for Active; 'I' for Inactive)
REMARK    1  A    between atoms: CA   and  CB  
REMARK    2  A    between atoms: CB   and  CG  
REMARK    3  A    between atoms: CG   and  CD  
REMARK    4  A    between atoms: CD   and  CE  
ROOT
ATOM      1  CA  LYS A 135      33.193  34.663   9.290  1.00 25.02     0.186 C 
ENDROOT
BRANCH   1   2
ATOM      2  CB  LYS A 135      32.060  35.360  10.034  1.00 26.63     0.034 C 
BRANCH   2   3
ATOM      3  CG  LYS A 135      30.708  34.739   9.792  1.00 29.45     0.005 C 
BRANCH   3   4
ATOM      4  CD  LYS A 135      30.465  34.547   8.303  1.00 32.00     0.041 C 
BRANCH   4   5
ATOM      5  CE  LYS A 135      29.015  34.829   7.959  1.00 34.25     0.338 C 
ATOM      6  NZ  LYS A 135      28.901  35.545   6.659  1.00 35.99     0.618 N 
ENDBRANCH   4   5
ENDBRANCH   3   4
ENDBRANCH   2   3
ENDBRANCH   1   2
END_RES LYS A 135
BEGIN_RES TYR A 136
REMARK  2 active torsions:
REMARK  status: ('A' for Active; 'I' for Inactive)
REMARK    5  A    between atoms: CA   and  CB  
REMARK    6  A    between atoms: CB   and  CG  
ROOT
ATOM      7  CA  TYR A 136      36.583  36.399   8.994  1.00 26.14     0.191 C 
ENDROOT
BRANCH   7   8
ATOM      8  CB  TYR A 136      37.367  36.835  10.240  1.00 28.16     0.060 C 
BRANCH   8   9
ATOM      9  CG  TYR A 136      37.242  38.313  10.516  1.00 31.88    -0.020 A 
ATOM     10  CD2 TYR A 136      36.394  38.793  11.517  1.00 32.67    -0.002 A 
ATOM     11  CE2 TYR A 136      36.284  40.168  11.764  1.00 33.89     0.027 A 
ATOM     12  CZ  TYR A 136      37.030  41.072  11.003  1.00 34.34     0.131 A 
ATOM     13  OH  TYR A 136      36.942  42.437  11.235  1.00 35.14    -0.190 OA
ATOM     14  CE1 TYR A 136      37.876  40.613  10.004  1.00 35.01     0.027 A 
ATOM     15  CD1 TYR A 136      37.972  39.241   9.763  1.00 33.57    -0.002 A 
ENDBRANCH   8   9
ENDBRANCH   7   8
END_RES TYR A 136
BEGIN_RES ASN A 133
REMARK  2 active torsions:
REMARK  status: ('A' for Active; 'I' for Inactive)
REMARK    7  A    between atoms: CA   and  CB  
REMARK    8  A    between atoms: CB   and  CG  
ROOT
ATOM     16  CA  ASN A 133      31.225  30.257  11.749  1.00 18.15     0.196 C 
ENDROOT
BRANCH  16  17
ATOM     17  CB  ASN A 133      30.092  31.240  11.460  1.00 18.27     0.126 C 
BRANCH  17  18
ATOM     18  CG  ASN A 133      28.751  30.582  11.352  1.00 18.94     0.276 C 
ATOM     19  OD1 ASN A 133      28.577  29.605  10.621  1.00 18.09    -0.269 OA
ATOM     20  ND2 ASN A 133      27.778  31.119  12.086  1.00 18.93    -0.107 N 
ENDBRANCH  17  18
ENDBRANCH  16  17
END_RES ASN A 133
