REMARK VINA RESULT:    -4.017      3.579      5.078
REMARK INTER + INTRA:          -7.918
REMARK INTER:                  -4.696
REMARK INTRA:                  -3.222
REMARK UNBOUND:                -3.432
REMARK SMILES Cc1cn(-c2ccccc2C(C)C)nn1
REMARK SMILES IDX 5 1 10 2 9 3 8 4 7 5 6 6 4 7 1 8 2 9 3 10 15 11 14 12 11 13
REMARK SMILES IDX 12 14 13 15
REMARK H PARENT
REMARK Flexibility Score: inf
ROOT
ATOM      1  C   UNL     1      32.472  34.878  14.448  1.00  0.00     0.070 A 
ATOM      2  C   UNL     1      31.711  35.795  13.760  1.00  0.00    -0.020 A 
ATOM      3  C   UNL     1      32.290  36.546  12.744  1.00  0.00     0.006 A 
ATOM      4  C   UNL     1      33.609  36.423  12.381  1.00  0.00     0.000 A 
ATOM      5  C   UNL     1      34.374  35.503  13.070  1.00  0.00     0.002 A 
ATOM      6  C   UNL     1      33.810  34.757  14.074  1.00  0.00     0.029 A 
ENDROOT
BRANCH   1   7
ATOM      7  N   UNL     1      31.936  34.068  15.502  1.00  0.00    -0.220 N 
ATOM      8  C   UNL     1      30.289  31.166  17.023  1.00  0.00     0.070 C 
ATOM      9  C   UNL     1      30.965  32.433  16.686  1.00  0.00     0.080 A 
ATOM     10  C   UNL     1      31.351  32.861  15.413  1.00  0.00     0.140 A 
ATOM     11  N   UNL     1      31.352  33.445  17.509  1.00  0.00    -0.135 NA
ATOM     12  N   UNL     1      31.915  34.382  16.787  1.00  0.00    -0.062 NA
ENDBRANCH   1   7
BRANCH   2  13
ATOM     13  C   UNL     1      30.285  35.958  14.129  1.00  0.00     0.015 C 
ATOM     14  C   UNL     1      29.408  35.171  13.160  1.00  0.00     0.012 C 
ATOM     15  C   UNL     1      29.874  37.429  14.022  1.00  0.00     0.012 C 
ENDBRANCH   2  13
TORSDOF 2
BEGIN_RES LYS A 135
REMARK  4 active torsions:
REMARK  status: ('A' for Active; 'I' for Inactive)
REMARK    1  A    between atoms: CA   and  CB  
REMARK    2  A    between atoms: CB   and  CG  
REMARK    3  A    between atoms: CG   and  CD  
REMARK    4  A    between atoms: CD   and  CE  
ROOT
ATOM      1  CA  LYS A 135      33.193  34.663   9.290  1.00 25.02     0.186 C 
ENDROOT
BRANCH   1   2
ATOM      2  CB  LYS A 135      32.060  35.360  10.034  1.00 26.63     0.034 C 
BRANCH   2   3
ATOM      3  CG  LYS A 135      30.703  34.766   9.758  1.00 29.45     0.005 C 
BRANCH   3   4
ATOM      4  CD  LYS A 135      30.509  34.541   8.267  1.00 32.00     0.041 C 
BRANCH   4   5
ATOM      5  CE  LYS A 135      29.106  34.938   7.846  1.00 34.25     0.338 C 
ATOM      6  NZ  LYS A 135      28.085  34.330   8.743  1.00 35.99     0.618 N 
ENDBRANCH   4   5
ENDBRANCH   3   4
ENDBRANCH   2   3
ENDBRANCH   1   2
END_RES LYS A 135
BEGIN_RES TYR A 136
REMARK  2 active torsions:
REMARK  status: ('A' for Active; 'I' for Inactive)
REMARK    5  A    between atoms: CA   and  CB  
REMARK    6  A    between atoms: CB   and  CG  
ROOT
ATOM      7  CA  TYR A 136      36.583  36.399   8.994  1.00 26.14     0.191 C 
ENDROOT
BRANCH   7   8
ATOM      8  CB  TYR A 136      37.367  36.835  10.240  1.00 28.16     0.060 C 
BRANCH   8   9
ATOM      9  CG  TYR A 136      36.681  37.945  10.998  1.00 31.88    -0.020 A 
ATOM     10  CD2 TYR A 136      35.797  38.817  10.360  1.00 32.67    -0.002 A 
ATOM     11  CE2 TYR A 136      35.166  39.847  11.072  1.00 33.89     0.027 A 
ATOM     12  CZ  TYR A 136      35.424  40.005  12.436  1.00 34.34     0.131 A 
ATOM     13  OH  TYR A 136      34.806  41.013  13.163  1.00 35.14    -0.190 OA
ATOM     14  CE1 TYR A 136      36.301  39.148  13.086  1.00 35.01     0.027 A 
ATOM     15  CD1 TYR A 136      36.928  38.131  12.364  1.00 33.57    -0.002 A 
ENDBRANCH   8   9
ENDBRANCH   7   8
END_RES TYR A 136
BEGIN_RES ASN A 133
REMARK  2 active torsions:
REMARK  status: ('A' for Active; 'I' for Inactive)
REMARK    7  A    between atoms: CA   and  CB  
REMARK    8  A    between atoms: CB   and  CG  
ROOT
ATOM     16  CA  ASN A 133      31.225  30.257  11.749  1.00 18.15     0.196 C 
ENDROOT
BRANCH  16  17
ATOM     17  CB  ASN A 133      30.092  31.240  11.460  1.00 18.27     0.126 C 
BRANCH  17  18
ATOM     18  CG  ASN A 133      28.749  30.584  11.368  1.00 18.94     0.276 C 
ATOM     19  OD1 ASN A 133      28.565  29.607  10.640  1.00 18.09    -0.269 OA
ATOM     20  ND2 ASN A 133      27.785  31.123  12.113  1.00 18.93    -0.107 N 
ENDBRANCH  17  18
ENDBRANCH  16  17
END_RES ASN A 133
