REMARK VINA RESULT:    -4.878      7.221     11.234
REMARK INTER + INTRA:         -10.544
REMARK INTER:                  -6.898
REMARK INTRA:                  -3.645
REMARK UNBOUND:                -3.812
REMARK SMILES Cc1cn(C[C@@H](C(=O)O)C(c2ccccc2)c2ccccc2)nn1
REMARK SMILES IDX 6 1 5 2 4 3 1 4 2 5 3 6 24 7 23 8 7 9 8 10 9 11 10 13 11 14
REMARK SMILES IDX 12 15 16 16 13 17 15 18 14 19 17 20 18 21 22 22 19 23 21 24
REMARK SMILES IDX 20 25
REMARK H PARENT 9 12
REMARK Flexibility Score: inf
ROOT
ATOM      1  C   UNL     1      37.347  38.264   2.191  1.00  0.00     0.132 C 
ENDROOT
BRANCH   1   2
ATOM      2  C   UNL     1      38.746  38.196   1.672  1.00  0.00     0.162 C 
BRANCH   2   3
ATOM      3  N   UNL     1      38.897  38.967   0.460  1.00  0.00    -0.251 N 
ATOM      4  C   UNL     1      39.278  42.064  -1.440  1.00  0.00     0.070 C 
ATOM      5  C   UNL     1      39.134  40.701  -0.847  1.00  0.00     0.080 A 
ATOM      6  C   UNL     1      38.987  40.325   0.447  1.00  0.00     0.134 A 
ATOM      7  N   UNL     1      39.130  39.578  -1.590  1.00  0.00    -0.136 NA
ATOM      8  N   UNL     1      38.988  38.554  -0.793  1.00  0.00    -0.067 NA
ENDBRANCH   2   3
ENDBRANCH   1   2
BRANCH   1   9
ATOM      9  C   UNL     1      36.439  37.436   1.397  1.00  0.00     0.309 C 
ATOM     10  O   UNL     1      35.194  37.592   1.532  1.00  0.00    -0.252 OA
BRANCH   9  11
ATOM     11  O   UNL     1      36.916  36.476   0.490  1.00  0.00    -0.481 OA
ATOM     12  H   UNL     1      36.244  35.758   0.182  1.00  0.00     0.296 HD
ENDBRANCH   9  11
ENDBRANCH   1   9
BRANCH   1  13
ATOM     13  C   UNL     1      37.324  37.744   3.627  1.00  0.00     0.065 C 
BRANCH  13  14
ATOM     14  C   UNL     1      38.693  37.592   4.192  1.00  0.00    -0.040 A 
ATOM     15  C   UNL     1      39.403  36.416   4.192  1.00  0.00     0.004 A 
ATOM     16  C   UNL     1      39.268  38.730   4.751  1.00  0.00     0.004 A 
ATOM     17  C   UNL     1      40.672  36.387   4.746  1.00  0.00     0.000 A 
ATOM     18  C   UNL     1      40.540  38.669   5.298  1.00  0.00     0.000 A 
ATOM     19  C   UNL     1      41.243  37.502   5.297  1.00  0.00     0.000 A 
ENDBRANCH  13  14
BRANCH  13  20
ATOM     20  C   UNL     1      36.505  38.649   4.469  1.00  0.00    -0.040 A 
ATOM     21  C   UNL     1      36.421  39.995   4.174  1.00  0.00     0.004 A 
ATOM     22  C   UNL     1      35.798  38.182   5.554  1.00  0.00     0.004 A 
ATOM     23  C   UNL     1      35.675  40.892   4.898  1.00  0.00     0.000 A 
ATOM     24  C   UNL     1      35.035  39.065   6.305  1.00  0.00     0.000 A 
ATOM     25  C   UNL     1      34.976  40.384   5.986  1.00  0.00     0.000 A 
ENDBRANCH  13  20
ENDBRANCH   1  13
TORSDOF 7
BEGIN_RES LYS A 135
REMARK  4 active torsions:
REMARK  status: ('A' for Active; 'I' for Inactive)
REMARK    1  A    between atoms: CA   and  CB  
REMARK    2  A    between atoms: CB   and  CG  
REMARK    3  A    between atoms: CG   and  CD  
REMARK    4  A    between atoms: CD   and  CE  
ROOT
ATOM      1  CA  LYS A 135      33.193  34.663   9.290  1.00 25.02     0.186 C 
ENDROOT
BRANCH   1   2
ATOM      2  CB  LYS A 135      32.060  35.360  10.034  1.00 26.63     0.034 C 
BRANCH   2   3
ATOM      3  CG  LYS A 135      30.830  35.578   9.191  1.00 29.45     0.005 C 
BRANCH   3   4
ATOM      4  CD  LYS A 135      30.286  34.252   8.682  1.00 32.00     0.041 C 
BRANCH   4   5
ATOM      5  CE  LYS A 135      28.881  34.017   9.202  1.00 34.25     0.338 C 
ATOM      6  NZ  LYS A 135      27.867  34.641   8.308  1.00 35.99     0.618 N 
ENDBRANCH   4   5
ENDBRANCH   3   4
ENDBRANCH   2   3
ENDBRANCH   1   2
END_RES LYS A 135
BEGIN_RES TYR A 136
REMARK  2 active torsions:
REMARK  status: ('A' for Active; 'I' for Inactive)
REMARK    5  A    between atoms: CA   and  CB  
REMARK    6  A    between atoms: CB   and  CG  
ROOT
ATOM      7  CA  TYR A 136      36.583  36.399   8.994  1.00 26.14     0.191 C 
ENDROOT
BRANCH   7   8
ATOM      8  CB  TYR A 136      37.367  36.835  10.240  1.00 28.16     0.060 C 
BRANCH   8   9
ATOM      9  CG  TYR A 136      37.371  38.332  10.429  1.00 31.88    -0.020 A 
ATOM     10  CD2 TYR A 136      38.044  38.924  11.500  1.00 32.67    -0.002 A 
ATOM     11  CE2 TYR A 136      38.040  40.316  11.667  1.00 33.89     0.027 A 
ATOM     12  CZ  TYR A 136      37.355  41.122  10.755  1.00 34.34     0.131 A 
ATOM     13  OH  TYR A 136      37.343  42.503  10.897  1.00 35.14    -0.190 OA
ATOM     14  CE1 TYR A 136      36.679  40.551   9.686  1.00 35.01     0.027 A 
ATOM     15  CD1 TYR A 136      36.686  39.163   9.533  1.00 33.57    -0.002 A 
ENDBRANCH   8   9
ENDBRANCH   7   8
END_RES TYR A 136
BEGIN_RES ASN A 133
REMARK  2 active torsions:
REMARK  status: ('A' for Active; 'I' for Inactive)
REMARK    7  A    between atoms: CA   and  CB  
REMARK    8  A    between atoms: CB   and  CG  
ROOT
ATOM     16  CA  ASN A 133      31.225  30.257  11.749  1.00 18.15     0.196 C 
ENDROOT
BRANCH  16  17
ATOM     17  CB  ASN A 133      30.092  31.240  11.460  1.00 18.27     0.126 C 
BRANCH  17  18
ATOM     18  CG  ASN A 133      28.757  30.578  11.317  1.00 18.94     0.276 C 
ATOM     19  OD1 ASN A 133      28.600  29.611  10.568  1.00 18.09    -0.269 OA
ATOM     20  ND2 ASN A 133      27.767  31.100  12.041  1.00 18.93    -0.107 N 
ENDBRANCH  17  18
ENDBRANCH  16  17
END_RES ASN A 133
