REMARK VINA RESULT:    -4.447      4.406      7.831
REMARK INTER + INTRA:          -6.934
REMARK INTER:                  -3.816
REMARK INTRA:                  -3.118
REMARK UNBOUND:                -2.227
REMARK SMILES Cc1ccc(-n2cc(C)nn2)cc1
REMARK SMILES IDX 5 1 4 2 3 3 2 4 1 5 13 6 12 7 6 8 9 9 8 10 7 11 10 12 11 13
REMARK H PARENT
REMARK Flexibility Score: inf
ROOT
ATOM      1  C   UNL     1      24.155  37.003   8.069  1.00  0.00     0.066 A 
ATOM      2  C   UNL     1      24.120  36.061   9.065  1.00  0.00     0.029 A 
ATOM      3  C   UNL     1      22.907  35.559   9.494  1.00  0.00     0.005 A 
ATOM      4  C   UNL     1      21.702  35.966   8.961  1.00  0.00    -0.051 A 
ATOM      5  C   UNL     1      20.407  35.413   9.438  1.00  0.00     0.044 C 
ATOM      6  C   UNL     1      21.764  36.919   7.958  1.00  0.00     0.005 A 
ATOM      7  C   UNL     1      22.969  37.433   7.512  1.00  0.00     0.029 A 
ENDROOT
BRANCH   1   8
ATOM      8  N   UNL     1      25.376  37.527   7.615  1.00  0.00    -0.220 N 
ATOM      9  C   UNL     1      28.735  37.199   6.258  1.00  0.00     0.070 C 
ATOM     10  C   UNL     1      27.423  37.658   6.807  1.00  0.00     0.080 A 
ATOM     11  C   UNL     1      26.410  36.797   7.159  1.00  0.00     0.140 A 
ATOM     12  N   UNL     1      26.982  38.884   7.056  1.00  0.00    -0.135 NA
ATOM     13  N   UNL     1      25.757  38.804   7.539  1.00  0.00    -0.062 NA
ENDBRANCH   1   8
TORSDOF 1
BEGIN_RES LYS A 135
REMARK  4 active torsions:
REMARK  status: ('A' for Active; 'I' for Inactive)
REMARK    1  A    between atoms: CA   and  CB  
REMARK    2  A    between atoms: CB   and  CG  
REMARK    3  A    between atoms: CG   and  CD  
REMARK    4  A    between atoms: CD   and  CE  
ROOT
ATOM      1  CA  LYS A 135      33.193  34.663   9.290  1.00 25.02     0.186 C 
ENDROOT
BRANCH   1   2
ATOM      2  CB  LYS A 135      32.060  35.360  10.034  1.00 26.63     0.034 C 
BRANCH   2   3
ATOM      3  CG  LYS A 135      30.849  35.623   9.177  1.00 29.45     0.005 C 
BRANCH   3   4
ATOM      4  CD  LYS A 135      30.309  34.325   8.597  1.00 32.00     0.041 C 
BRANCH   4   5
ATOM      5  CE  LYS A 135      28.793  34.323   8.616  1.00 34.25     0.338 C 
ATOM      6  NZ  LYS A 135      28.274  34.031   9.981  1.00 35.99     0.618 N 
ENDBRANCH   4   5
ENDBRANCH   3   4
ENDBRANCH   2   3
ENDBRANCH   1   2
END_RES LYS A 135
BEGIN_RES TYR A 136
REMARK  2 active torsions:
REMARK  status: ('A' for Active; 'I' for Inactive)
REMARK    5  A    between atoms: CA   and  CB  
REMARK    6  A    between atoms: CB   and  CG  
ROOT
ATOM      7  CA  TYR A 136      36.583  36.399   8.994  1.00 26.14     0.191 C 
ENDROOT
BRANCH   7   8
ATOM      8  CB  TYR A 136      37.367  36.835  10.240  1.00 28.16     0.060 C 
BRANCH   8   9
ATOM      9  CG  TYR A 136      37.189  38.300  10.554  1.00 31.88    -0.020 A 
ATOM     10  CD2 TYR A 136      37.497  38.811  11.817  1.00 32.67    -0.002 A 
ATOM     11  CE2 TYR A 136      37.326  40.174  12.099  1.00 33.89     0.027 A 
ATOM     12  CZ  TYR A 136      36.843  41.032  11.109  1.00 34.34     0.131 A 
ATOM     13  OH  TYR A 136      36.673  42.386  11.364  1.00 35.14    -0.190 OA
ATOM     14  CE1 TYR A 136      36.531  40.541   9.849  1.00 35.01     0.027 A 
ATOM     15  CD1 TYR A 136      36.699  39.181   9.582  1.00 33.57    -0.002 A 
ENDBRANCH   8   9
ENDBRANCH   7   8
END_RES TYR A 136
BEGIN_RES ASN A 133
REMARK  2 active torsions:
REMARK  status: ('A' for Active; 'I' for Inactive)
REMARK    7  A    between atoms: CA   and  CB  
REMARK    8  A    between atoms: CB   and  CG  
ROOT
ATOM     16  CA  ASN A 133      31.225  30.257  11.749  1.00 18.15     0.196 C 
ENDROOT
BRANCH  16  17
ATOM     17  CB  ASN A 133      30.092  31.240  11.460  1.00 18.27     0.126 C 
BRANCH  17  18
ATOM     18  CG  ASN A 133      28.756  30.579  11.321  1.00 18.94     0.276 C 
ATOM     19  OD1 ASN A 133      28.595  29.615  10.569  1.00 18.09    -0.269 OA
ATOM     20  ND2 ASN A 133      27.770  31.097  12.053  1.00 18.93    -0.107 N 
ENDBRANCH  17  18
ENDBRANCH  16  17
END_RES ASN A 133
