REMARK VINA RESULT:    -3.667      4.480      8.374
REMARK INTER + INTRA:          -7.643
REMARK INTER:                  -4.277
REMARK INTRA:                  -3.366
REMARK UNBOUND:                -3.332
REMARK SMILES Cc1cn(CC(=O)Nc2ncccn2)nn1
REMARK SMILES IDX 6 1 7 2 8 3 5 5 4 6 1 7 2 8 3 9 16 10 15 11 9 12 10 13 14 14
REMARK SMILES IDX 11 15 13 16 12 17
REMARK H PARENT 8 4
REMARK Flexibility Score: inf
ROOT
ATOM      1  C   UNL     1      30.582  40.380   6.702  1.00  0.00     0.248 C 
ATOM      2  O   UNL     1      29.499  40.962   6.445  1.00  0.00    -0.272 OA
ATOM      3  N   UNL     1      30.519  38.960   6.895  1.00  0.00    -0.293 N 
ATOM      4  H   UNL     1      31.404  38.459   7.109  1.00  0.00     0.173 HD
ENDROOT
BRANCH   1   5
ATOM      5  C   UNL     1      31.879  41.046   6.814  1.00  0.00     0.246 C 
BRANCH   5   6
ATOM      6  N   UNL     1      32.915  40.322   6.104  1.00  0.00    -0.243 N 
ATOM      7  C   UNL     1      36.044  38.419   5.772  1.00  0.00     0.070 C 
ATOM      8  C   UNL     1      34.753  39.161   5.633  1.00  0.00     0.080 A 
ATOM      9  C   UNL     1      34.008  39.758   6.637  1.00  0.00     0.134 A 
ATOM     10  N   UNL     1      34.057  39.395   4.499  1.00  0.00    -0.136 NA
ATOM     11  N   UNL     1      32.982  40.080   4.804  1.00  0.00    -0.067 NA
ENDBRANCH   5   6
ENDBRANCH   1   5
BRANCH   3  12
ATOM     12  C   UNL     1      29.309  38.239   6.804  1.00  0.00     0.229 A 
ATOM     13  N   UNL     1      28.925  37.637   5.670  1.00  0.00    -0.221 NA
ATOM     14  N   UNL     1      28.518  38.150   7.879  1.00  0.00    -0.221 NA
ATOM     15  C   UNL     1      27.774  36.945   5.564  1.00  0.00     0.117 A 
ATOM     16  C   UNL     1      27.348  37.478   7.867  1.00  0.00     0.117 A 
ATOM     17  C   UNL     1      26.970  36.869   6.699  1.00  0.00     0.040 A 
ENDBRANCH   3  12
TORSDOF 3
BEGIN_RES LYS A 135
REMARK  4 active torsions:
REMARK  status: ('A' for Active; 'I' for Inactive)
REMARK    1  A    between atoms: CA   and  CB  
REMARK    2  A    between atoms: CB   and  CG  
REMARK    3  A    between atoms: CG   and  CD  
REMARK    4  A    between atoms: CD   and  CE  
ROOT
ATOM      1  CA  LYS A 135      33.193  34.663   9.290  1.00 25.02     0.186 C 
ENDROOT
BRANCH   1   2
ATOM      2  CB  LYS A 135      32.060  35.360  10.034  1.00 26.63     0.034 C 
BRANCH   2   3
ATOM      3  CG  LYS A 135      30.880  35.694   9.158  1.00 29.45     0.005 C 
BRANCH   3   4
ATOM      4  CD  LYS A 135      30.411  34.464   8.398  1.00 32.00     0.041 C 
BRANCH   4   5
ATOM      5  CE  LYS A 135      28.932  34.222   8.636  1.00 34.25     0.338 C 
ATOM      6  NZ  LYS A 135      28.595  34.341  10.082  1.00 35.99     0.618 N 
ENDBRANCH   4   5
ENDBRANCH   3   4
ENDBRANCH   2   3
ENDBRANCH   1   2
END_RES LYS A 135
BEGIN_RES TYR A 136
REMARK  2 active torsions:
REMARK  status: ('A' for Active; 'I' for Inactive)
REMARK    5  A    between atoms: CA   and  CB  
REMARK    6  A    between atoms: CB   and  CG  
ROOT
ATOM      7  CA  TYR A 136      36.583  36.399   8.994  1.00 26.14     0.191 C 
ENDROOT
BRANCH   7   8
ATOM      8  CB  TYR A 136      37.367  36.835  10.240  1.00 28.16     0.060 C 
BRANCH   8   9
ATOM      9  CG  TYR A 136      37.313  38.326  10.467  1.00 31.88    -0.020 A 
ATOM     10  CD2 TYR A 136      36.465  39.142   9.715  1.00 32.67    -0.002 A 
ATOM     11  CE2 TYR A 136      36.424  40.526   9.933  1.00 33.89     0.027 A 
ATOM     12  CZ  TYR A 136      37.240  41.099  10.912  1.00 34.34     0.131 A 
ATOM     13  OH  TYR A 136      37.210  42.466  11.149  1.00 35.14    -0.190 OA
ATOM     14  CE1 TYR A 136      38.089  40.303  11.667  1.00 35.01     0.027 A 
ATOM     15  CD1 TYR A 136      38.126  38.927  11.437  1.00 33.57    -0.002 A 
ENDBRANCH   8   9
ENDBRANCH   7   8
END_RES TYR A 136
BEGIN_RES ASN A 133
REMARK  2 active torsions:
REMARK  status: ('A' for Active; 'I' for Inactive)
REMARK    7  A    between atoms: CA   and  CB  
REMARK    8  A    between atoms: CB   and  CG  
ROOT
ATOM     16  CA  ASN A 133      31.225  30.257  11.749  1.00 18.15     0.196 C 
ENDROOT
BRANCH  16  17
ATOM     17  CB  ASN A 133      30.092  31.240  11.460  1.00 18.27     0.126 C 
BRANCH  17  18
ATOM     18  CG  ASN A 133      28.751  30.582  11.352  1.00 18.94     0.276 C 
ATOM     19  OD1 ASN A 133      28.581  29.594  10.635  1.00 18.09    -0.269 OA
ATOM     20  ND2 ASN A 133      27.773  31.132  12.071  1.00 18.93    -0.107 N 
ENDBRANCH  17  18
ENDBRANCH  16  17
END_RES ASN A 133
