REMARK VINA RESULT:    -4.807      6.148     10.291
REMARK INTER + INTRA:          -9.568
REMARK INTER:                  -5.791
REMARK INTRA:                  -3.778
REMARK UNBOUND:                -3.778
REMARK SMILES Cc1cn(-c2ccc(-c3c4ccc(=O)cc-4oc4cc(O)ccc34)c(C(=O)[O-])c2)nn1
REMARK SMILES IDX 9 1 24 2 23 3 22 4 20 5 19 6 18 7 17 8 16 9 15 10 13 11
REMARK SMILES IDX 14 12 12 13 11 14 10 15 8 16 5 17 29 18 6 19 25 20 7 21 4 22
REMARK SMILES IDX 1 23 2 24 3 25 31 26 30 27 26 28 27 29 28 30 21 31
REMARK H PARENT 21 32
REMARK Flexibility Score: inf
ROOT
ATOM      1  C   UNL     1      38.397  39.682   4.930  1.00  0.00     0.004 A 
ATOM      2  C   UNL     1      38.076  39.635   3.591  1.00  0.00     0.026 A 
ATOM      3  C   UNL     1      36.798  39.948   3.180  1.00  0.00     0.016 A 
ATOM      4  C   UNL     1      36.432  39.913   1.843  1.00  0.00     0.047 A 
ATOM      5  C   UNL     1      37.389  39.554   0.920  1.00  0.00     0.119 A 
ATOM      6  C   UNL     1      38.669  39.241   1.329  1.00  0.00     0.093 A 
ATOM      7  C   UNL     1      39.051  39.272   2.671  1.00  0.00     0.139 A 
ATOM      8  O   UNL     1      40.278  38.968   3.026  1.00  0.00    -0.456 OA
ATOM      9  C   UNL     1      40.675  38.984   4.258  1.00  0.00     0.139 A 
ATOM     10  C   UNL     1      41.950  38.673   4.666  1.00  0.00     0.099 A 
ATOM     11  C   UNL     1      42.249  38.726   6.008  1.00  0.00     0.182 A 
ATOM     12  O   UNL     1      43.417  38.440   6.371  1.00  0.00    -0.290 OA
ATOM     13  C   UNL     1      41.316  39.082   6.964  1.00  0.00     0.053 A 
ATOM     14  C   UNL     1      40.020  39.406   6.627  1.00  0.00     0.016 A 
ATOM     15  C   UNL     1      39.690  39.361   5.282  1.00  0.00     0.026 A 
ENDROOT
BRANCH   1  16
ATOM     16  C   UNL     1      37.375  40.062   5.882  1.00  0.00    -0.008 A 
ATOM     17  C   UNL     1      35.424  40.866   7.713  1.00  0.00     0.067 A 
ATOM     18  C   UNL     1      36.269  41.801   7.154  1.00  0.00     0.039 A 
ATOM     19  C   UNL     1      35.542  39.529   7.366  1.00  0.00     0.029 A 
ATOM     20  C   UNL     1      37.229  41.383   6.250  1.00  0.00     0.007 A 
ATOM     21  C   UNL     1      36.514  39.145   6.457  1.00  0.00     0.012 A 
BRANCH  17  22
ATOM     22  N   UNL     1      34.419  41.236   8.648  1.00  0.00    -0.220 N 
ATOM     23  C   UNL     1      31.475  40.498  10.733  1.00  0.00     0.070 C 
ATOM     24  C   UNL     1      32.647  41.061  10.000  1.00  0.00     0.080 A 
ATOM     25  C   UNL     1      33.457  40.385   9.111  1.00  0.00     0.140 A 
ATOM     26  N   UNL     1      33.146  42.309  10.051  1.00  0.00    -0.135 NA
ATOM     27  N   UNL     1      34.197  42.379   9.236  1.00  0.00    -0.062 NA
ENDBRANCH  17  22
BRANCH  20  28
ATOM     28  C   UNL     1      38.116  42.383   5.666  1.00  0.00     0.072 C 
ATOM     29  O   UNL     1      39.188  42.718   6.220  1.00  0.00    -0.545 OA
ATOM     30  O   UNL     1      37.802  43.002   4.465  1.00  0.00    -0.545 OA
ENDBRANCH  20  28
ENDBRANCH   1  16
BRANCH   5  31
ATOM     31  O   UNL     1      37.029  39.517  -0.437  1.00  0.00    -0.508 OA
ATOM     32  H   UNL     1      36.054  39.549  -0.701  1.00  0.00     0.293 HD
ENDBRANCH   5  31
TORSDOF 4
BEGIN_RES LYS A 135
REMARK  4 active torsions:
REMARK  status: ('A' for Active; 'I' for Inactive)
REMARK    1  A    between atoms: CA   and  CB  
REMARK    2  A    between atoms: CB   and  CG  
REMARK    3  A    between atoms: CG   and  CD  
REMARK    4  A    between atoms: CD   and  CE  
ROOT
ATOM      1  CA  LYS A 135      33.193  34.663   9.290  1.00 25.02     0.186 C 
ENDROOT
BRANCH   1   2
ATOM      2  CB  LYS A 135      32.060  35.360  10.034  1.00 26.63     0.034 C 
BRANCH   2   3
ATOM      3  CG  LYS A 135      30.836  35.592   9.186  1.00 29.45     0.005 C 
BRANCH   3   4
ATOM      4  CD  LYS A 135      30.234  34.269   8.738  1.00 32.00     0.041 C 
BRANCH   4   5
ATOM      5  CE  LYS A 135      28.743  34.415   8.502  1.00 34.25     0.338 C 
ATOM      6  NZ  LYS A 135      27.962  33.708   9.555  1.00 35.99     0.618 N 
ENDBRANCH   4   5
ENDBRANCH   3   4
ENDBRANCH   2   3
ENDBRANCH   1   2
END_RES LYS A 135
BEGIN_RES TYR A 136
REMARK  2 active torsions:
REMARK  status: ('A' for Active; 'I' for Inactive)
REMARK    5  A    between atoms: CA   and  CB  
REMARK    6  A    between atoms: CB   and  CG  
ROOT
ATOM      7  CA  TYR A 136      36.583  36.399   8.994  1.00 26.14     0.191 C 
ENDROOT
BRANCH   7   8
ATOM      8  CB  TYR A 136      37.367  36.835  10.240  1.00 28.16     0.060 C 
BRANCH   8   9
ATOM      9  CG  TYR A 136      37.371  38.332  10.428  1.00 31.88    -0.020 A 
ATOM     10  CD2 TYR A 136      36.401  38.966  11.208  1.00 32.67    -0.002 A 
ATOM     11  CE2 TYR A 136      36.413  40.357  11.375  1.00 33.89     0.027 A 
ATOM     12  CZ  TYR A 136      37.405  41.122  10.756  1.00 34.34     0.131 A 
ATOM     13  OH  TYR A 136      37.440  42.500  10.914  1.00 35.14    -0.190 OA
ATOM     14  CE1 TYR A 136      38.376  40.509   9.977  1.00 35.01     0.027 A 
ATOM     15  CD1 TYR A 136      38.350  39.123   9.813  1.00 33.57    -0.002 A 
ENDBRANCH   8   9
ENDBRANCH   7   8
END_RES TYR A 136
BEGIN_RES ASN A 133
REMARK  2 active torsions:
REMARK  status: ('A' for Active; 'I' for Inactive)
REMARK    7  A    between atoms: CA   and  CB  
REMARK    8  A    between atoms: CB   and  CG  
ROOT
ATOM     16  CA  ASN A 133      31.225  30.257  11.749  1.00 18.15     0.196 C 
ENDROOT
BRANCH  16  17
ATOM     17  CB  ASN A 133      30.092  31.240  11.460  1.00 18.27     0.126 C 
BRANCH  17  18
ATOM     18  CG  ASN A 133      28.751  30.582  11.353  1.00 18.94     0.276 C 
ATOM     19  OD1 ASN A 133      28.576  29.605  10.623  1.00 18.09    -0.269 OA
ATOM     20  ND2 ASN A 133      27.778  31.120  12.088  1.00 18.93    -0.107 N 
ENDBRANCH  17  18
ENDBRANCH  16  17
END_RES ASN A 133
