REMARK VINA RESULT:    -4.592      2.165      3.673
REMARK INTER + INTRA:          -7.753
REMARK INTER:                  -4.880
REMARK INTRA:                  -2.872
REMARK UNBOUND:                -2.892
REMARK SMILES Cc1cn(-c2ccc3[nH]ncc3c2)nn1
REMARK SMILES IDX 5 1 6 2 7 3 8 4 9 5 10 6 11 7 12 8 13 9 4 11 1 12 2 13 3 14
REMARK SMILES IDX 15 15 14 16
REMARK H PARENT 9 10
REMARK Flexibility Score: inf
ROOT
ATOM      1  C   UNL     1      35.108  36.205  13.594  1.00  0.00     0.067 A 
ATOM      2  C   UNL     1      35.069  37.129  14.619  1.00  0.00     0.030 A 
ATOM      3  C   UNL     1      34.105  38.112  14.610  1.00  0.00     0.030 A 
ATOM      4  C   UNL     1      33.153  38.223  13.605  1.00  0.00     0.065 A 
ATOM      5  N   UNL     1      32.133  39.051  13.348  1.00  0.00    -0.278 N 
ATOM      6  N   UNL     1      31.534  38.704  12.231  1.00  0.00    -0.183 NA
ATOM      7  C   UNL     1      32.160  37.625  11.726  1.00  0.00     0.143 A 
ATOM      8  C   UNL     1      33.198  37.288  12.572  1.00  0.00     0.022 A 
ATOM      9  C   UNL     1      34.165  36.300  12.580  1.00  0.00     0.040 A 
ATOM     10  H   UNL     1      31.856  39.850  13.946  1.00  0.00     0.190 HD
ENDROOT
BRANCH   1  11
ATOM     11  N   UNL     1      36.111  35.194  13.616  1.00  0.00    -0.220 N 
ATOM     12  C   UNL     1      38.204  32.411  12.507  1.00  0.00     0.070 C 
ATOM     13  C   UNL     1      37.493  33.522  13.167  1.00  0.00     0.080 A 
ATOM     14  C   UNL     1      36.458  34.298  12.687  1.00  0.00     0.140 A 
ATOM     15  N   UNL     1      37.739  33.996  14.408  1.00  0.00    -0.135 NA
ATOM     16  N   UNL     1      36.899  35.003  14.663  1.00  0.00    -0.062 NA
ENDBRANCH   1  11
TORSDOF 1
BEGIN_RES LYS A 135
REMARK  4 active torsions:
REMARK  status: ('A' for Active; 'I' for Inactive)
REMARK    1  A    between atoms: CA   and  CB  
REMARK    2  A    between atoms: CB   and  CG  
REMARK    3  A    between atoms: CG   and  CD  
REMARK    4  A    between atoms: CD   and  CE  
ROOT
ATOM      1  CA  LYS A 135      33.193  34.663   9.290  1.00 25.02     0.186 C 
ENDROOT
BRANCH   1   2
ATOM      2  CB  LYS A 135      32.060  35.360  10.034  1.00 26.63     0.034 C 
BRANCH   2   3
ATOM      3  CG  LYS A 135      30.751  34.616   9.972  1.00 29.45     0.005 C 
BRANCH   3   4
ATOM      4  CD  LYS A 135      30.393  34.279   8.533  1.00 32.00     0.041 C 
BRANCH   4   5
ATOM      5  CE  LYS A 135      28.993  34.763   8.205  1.00 34.25     0.338 C 
ATOM      6  NZ  LYS A 135      29.034  35.998   7.374  1.00 35.99     0.618 N 
ENDBRANCH   4   5
ENDBRANCH   3   4
ENDBRANCH   2   3
ENDBRANCH   1   2
END_RES LYS A 135
BEGIN_RES TYR A 136
REMARK  2 active torsions:
REMARK  status: ('A' for Active; 'I' for Inactive)
REMARK    5  A    between atoms: CA   and  CB  
REMARK    6  A    between atoms: CB   and  CG  
ROOT
ATOM      7  CA  TYR A 136      36.583  36.399   8.994  1.00 26.14     0.191 C 
ENDROOT
BRANCH   7   8
ATOM      8  CB  TYR A 136      37.367  36.835  10.240  1.00 28.16     0.060 C 
BRANCH   8   9
ATOM      9  CG  TYR A 136      36.811  38.090  10.866  1.00 31.88    -0.020 A 
ATOM     10  CD2 TYR A 136      37.342  38.604  12.051  1.00 32.67    -0.002 A 
ATOM     11  CE2 TYR A 136      36.817  39.770  12.625  1.00 33.89     0.027 A 
ATOM     12  CZ  TYR A 136      35.750  40.427  12.007  1.00 34.34     0.131 A 
ATOM     13  OH  TYR A 136      35.218  41.587  12.554  1.00 35.14    -0.190 OA
ATOM     14  CE1 TYR A 136      35.209  39.930  10.830  1.00 35.01     0.027 A 
ATOM     15  CD1 TYR A 136      35.736  38.765  10.272  1.00 33.57    -0.002 A 
ENDBRANCH   8   9
ENDBRANCH   7   8
END_RES TYR A 136
BEGIN_RES ASN A 133
REMARK  2 active torsions:
REMARK  status: ('A' for Active; 'I' for Inactive)
REMARK    7  A    between atoms: CA   and  CB  
REMARK    8  A    between atoms: CB   and  CG  
ROOT
ATOM     16  CA  ASN A 133      31.225  30.257  11.749  1.00 18.15     0.196 C 
ENDROOT
BRANCH  16  17
ATOM     17  CB  ASN A 133      30.092  31.240  11.460  1.00 18.27     0.126 C 
BRANCH  17  18
ATOM     18  CG  ASN A 133      28.752  30.582  11.348  1.00 18.94     0.276 C 
ATOM     19  OD1 ASN A 133      28.579  29.607  10.614  1.00 18.09    -0.269 OA
ATOM     20  ND2 ASN A 133      27.777  31.116  12.084  1.00 18.93    -0.107 N 
ENDBRANCH  17  18
ENDBRANCH  16  17
END_RES ASN A 133
