REMARK VINA RESULT:    -3.774      5.463      7.922
REMARK INTER + INTRA:          -7.537
REMARK INTER:                  -4.716
REMARK INTRA:                  -2.822
REMARK UNBOUND:                -3.211
REMARK SMILES Cc1cn(-c2ccc(CO)cn2)nn1
REMARK SMILES IDX 5 1 6 2 7 3 8 4 11 5 12 6 4 7 1 8 2 9 3 10 14 11 13 12 9 13
REMARK SMILES IDX 10 14
REMARK H PARENT 10 15
REMARK Flexibility Score: inf
ROOT
ATOM      1  C   UNL     1      34.173  35.181  13.489  1.00  0.00     0.155 A 
ATOM      2  C   UNL     1      33.790  36.156  12.585  1.00  0.00     0.049 A 
ATOM      3  C   UNL     1      32.487  36.633  12.518  1.00  0.00     0.011 A 
ATOM      4  C   UNL     1      31.576  36.092  13.396  1.00  0.00    -0.004 A 
ATOM      5  C   UNL     1      31.976  35.118  14.294  1.00  0.00     0.119 A 
ATOM      6  N   UNL     1      33.249  34.682  14.328  1.00  0.00    -0.237 NA
ENDROOT
BRANCH   1   7
ATOM      7  N   UNL     1      35.520  34.706  13.539  1.00  0.00    -0.202 N 
ATOM      8  C   UNL     1      38.485  32.788  12.507  1.00  0.00     0.070 C 
ATOM      9  C   UNL     1      37.450  33.659  13.129  1.00  0.00     0.080 A 
ATOM     10  C   UNL     1      36.138  33.838  12.713  1.00  0.00     0.142 A 
ATOM     11  N   UNL     1      37.574  34.444  14.217  1.00  0.00    -0.135 NA
ATOM     12  N   UNL     1      36.411  35.066  14.450  1.00  0.00    -0.061 NA
ENDBRANCH   1   7
BRANCH   4  13
ATOM     13  C   UNL     1      30.163  36.562  13.375  1.00  0.00     0.193 C 
BRANCH  13  14
ATOM     14  O   UNL     1      29.317  35.502  13.142  1.00  0.00    -0.392 OA
ATOM     15  H   UNL     1      28.916  35.204  14.002  1.00  0.00     0.211 HD
ENDBRANCH  13  14
ENDBRANCH   4  13
TORSDOF 3
BEGIN_RES LYS A 135
REMARK  4 active torsions:
REMARK  status: ('A' for Active; 'I' for Inactive)
REMARK    1  A    between atoms: CA   and  CB  
REMARK    2  A    between atoms: CB   and  CG  
REMARK    3  A    between atoms: CG   and  CD  
REMARK    4  A    between atoms: CD   and  CE  
ROOT
ATOM      1  CA  LYS A 135      33.193  34.663   9.290  1.00 25.02     0.186 C 
ENDROOT
BRANCH   1   2
ATOM      2  CB  LYS A 135      32.060  35.360  10.034  1.00 26.63     0.034 C 
BRANCH   2   3
ATOM      3  CG  LYS A 135      30.715  34.712   9.828  1.00 29.45     0.005 C 
BRANCH   3   4
ATOM      4  CD  LYS A 135      30.422  34.545   8.345  1.00 32.00     0.041 C 
BRANCH   4   5
ATOM      5  CE  LYS A 135      28.944  34.745   8.069  1.00 34.25     0.338 C 
ATOM      6  NZ  LYS A 135      28.568  36.182   8.177  1.00 35.99     0.618 N 
ENDBRANCH   4   5
ENDBRANCH   3   4
ENDBRANCH   2   3
ENDBRANCH   1   2
END_RES LYS A 135
BEGIN_RES TYR A 136
REMARK  2 active torsions:
REMARK  status: ('A' for Active; 'I' for Inactive)
REMARK    5  A    between atoms: CA   and  CB  
REMARK    6  A    between atoms: CB   and  CG  
ROOT
ATOM      7  CA  TYR A 136      36.583  36.399   8.994  1.00 26.14     0.191 C 
ENDROOT
BRANCH   7   8
ATOM      8  CB  TYR A 136      37.367  36.835  10.240  1.00 28.16     0.060 C 
BRANCH   8   9
ATOM      9  CG  TYR A 136      36.647  37.894  11.037  1.00 31.88    -0.020 A 
ATOM     10  CD2 TYR A 136      35.752  38.776  10.427  1.00 32.67    -0.002 A 
ATOM     11  CE2 TYR A 136      35.089  39.757  11.176  1.00 33.89     0.027 A 
ATOM     12  CZ  TYR A 136      35.325  39.858  12.549  1.00 34.34     0.131 A 
ATOM     13  OH  TYR A 136      34.674  40.818  13.313  1.00 35.14    -0.190 OA
ATOM     14  CE1 TYR A 136      36.211  38.992  13.172  1.00 35.01     0.027 A 
ATOM     15  CD1 TYR A 136      36.870  38.022  12.414  1.00 33.57    -0.002 A 
ENDBRANCH   8   9
ENDBRANCH   7   8
END_RES TYR A 136
BEGIN_RES ASN A 133
REMARK  2 active torsions:
REMARK  status: ('A' for Active; 'I' for Inactive)
REMARK    7  A    between atoms: CA   and  CB  
REMARK    8  A    between atoms: CB   and  CG  
ROOT
ATOM     16  CA  ASN A 133      31.225  30.257  11.749  1.00 18.15     0.196 C 
ENDROOT
BRANCH  16  17
ATOM     17  CB  ASN A 133      30.092  31.240  11.460  1.00 18.27     0.126 C 
BRANCH  17  18
ATOM     18  CG  ASN A 133      28.749  30.584  11.365  1.00 18.94     0.276 C 
ATOM     19  OD1 ASN A 133      28.564  29.613  10.628  1.00 18.09    -0.269 OA
ATOM     20  ND2 ASN A 133      27.787  31.115  12.118  1.00 18.93    -0.107 N 
ENDBRANCH  17  18
ENDBRANCH  16  17
END_RES ASN A 133
