REMARK VINA RESULT:    -5.953      3.217      6.341
REMARK INTER + INTRA:         -10.948
REMARK INTER:                  -7.190
REMARK INTRA:                  -3.759
REMARK UNBOUND:                -3.778
REMARK SMILES Cc1cn(-c2ccc(-c3c4ccc(=O)cc-4oc4cc(O)ccc34)c(C(=O)[O-])c2)nn1
REMARK SMILES IDX 9 1 24 2 23 3 22 4 20 5 19 6 18 7 17 8 16 9 15 10 13 11
REMARK SMILES IDX 14 12 12 13 11 14 10 15 8 16 5 17 29 18 6 19 25 20 7 21 4 22
REMARK SMILES IDX 1 23 2 24 3 25 31 26 30 27 26 28 27 29 28 30 21 31
REMARK H PARENT 21 32
REMARK Flexibility Score: inf
ROOT
ATOM      1  C   UNL     1      34.986  36.556  14.202  1.00  0.00     0.004 A 
ATOM      2  C   UNL     1      35.385  37.392  15.222  1.00  0.00     0.026 A 
ATOM      3  C   UNL     1      34.583  38.450  15.595  1.00  0.00     0.016 A 
ATOM      4  C   UNL     1      34.946  39.316  16.616  1.00  0.00     0.047 A 
ATOM      5  C   UNL     1      36.144  39.092  17.259  1.00  0.00     0.119 A 
ATOM      6  C   UNL     1      36.947  38.034  16.887  1.00  0.00     0.093 A 
ATOM      7  C   UNL     1      36.594  37.155  15.862  1.00  0.00     0.139 A 
ATOM      8  O   UNL     1      37.383  36.157  15.533  1.00  0.00    -0.456 OA
ATOM      9  C   UNL     1      37.095  35.318  14.590  1.00  0.00     0.139 A 
ATOM     10  C   UNL     1      37.894  34.264  14.219  1.00  0.00     0.099 A 
ATOM     11  C   UNL     1      37.478  33.442  13.199  1.00  0.00     0.182 A 
ATOM     12  O   UNL     1      38.215  32.481  12.867  1.00  0.00    -0.290 OA
ATOM     13  C   UNL     1      36.283  33.634  12.529  1.00  0.00     0.053 A 
ATOM     14  C   UNL     1      35.432  34.670  12.848  1.00  0.00     0.016 A 
ATOM     15  C   UNL     1      35.827  35.515  13.873  1.00  0.00     0.026 A 
ENDROOT
BRANCH   1  16
ATOM     16  C   UNL     1      33.724  36.811  13.541  1.00  0.00    -0.008 A 
ATOM     17  C   UNL     1      31.253  37.258  12.314  1.00  0.00     0.067 A 
ATOM     18  C   UNL     1      31.336  36.428  13.412  1.00  0.00     0.039 A 
ATOM     19  C   UNL     1      32.396  37.869  11.820  1.00  0.00     0.029 A 
ATOM     20  C   UNL     1      32.568  36.219  14.006  1.00  0.00     0.007 A 
ATOM     21  C   UNL     1      33.614  37.638  12.438  1.00  0.00     0.012 A 
BRANCH  17  22
ATOM     22  N   UNL     1      30.015  37.509  11.663  1.00  0.00    -0.220 N 
ATOM     23  C   UNL     1      26.381  37.055  11.282  1.00  0.00     0.070 C 
ATOM     24  C   UNL     1      27.829  37.412  11.209  1.00  0.00     0.080 A 
ATOM     25  C   UNL     1      28.826  36.962  12.050  1.00  0.00     0.140 A 
ATOM     26  N   UNL     1      28.448  38.224  10.332  1.00  0.00    -0.135 NA
ATOM     27  N   UNL     1      29.745  38.259  10.631  1.00  0.00    -0.062 NA
ENDBRANCH  17  22
BRANCH  20  28
ATOM     28  C   UNL     1      32.640  35.339  15.167  1.00  0.00     0.072 C 
ATOM     29  O   UNL     1      32.777  34.100  15.049  1.00  0.00    -0.545 OA
ATOM     30  O   UNL     1      32.561  35.850  16.455  1.00  0.00    -0.545 OA
ENDBRANCH  20  28
ENDBRANCH   1  16
BRANCH   5  31
ATOM     31  O   UNL     1      36.519  39.963  18.294  1.00  0.00    -0.508 OA
ATOM     32  H   UNL     1      36.405  40.960  18.180  1.00  0.00     0.293 HD
ENDBRANCH   5  31
TORSDOF 4
BEGIN_RES LYS A 135
REMARK  4 active torsions:
REMARK  status: ('A' for Active; 'I' for Inactive)
REMARK    1  A    between atoms: CA   and  CB  
REMARK    2  A    between atoms: CB   and  CG  
REMARK    3  A    between atoms: CG   and  CD  
REMARK    4  A    between atoms: CD   and  CE  
ROOT
ATOM      1  CA  LYS A 135      33.193  34.663   9.290  1.00 25.02     0.186 C 
ENDROOT
BRANCH   1   2
ATOM      2  CB  LYS A 135      32.060  35.360  10.034  1.00 26.63     0.034 C 
BRANCH   2   3
ATOM      3  CG  LYS A 135      30.696  34.809   9.708  1.00 29.45     0.005 C 
BRANCH   3   4
ATOM      4  CD  LYS A 135      30.575  34.521   8.219  1.00 32.00     0.041 C 
BRANCH   4   5
ATOM      5  CE  LYS A 135      29.289  35.106   7.667  1.00 34.25     0.338 C 
ATOM      6  NZ  LYS A 135      28.101  34.543   8.365  1.00 35.99     0.618 N 
ENDBRANCH   4   5
ENDBRANCH   3   4
ENDBRANCH   2   3
ENDBRANCH   1   2
END_RES LYS A 135
BEGIN_RES TYR A 136
REMARK  2 active torsions:
REMARK  status: ('A' for Active; 'I' for Inactive)
REMARK    5  A    between atoms: CA   and  CB  
REMARK    6  A    between atoms: CB   and  CG  
ROOT
ATOM      7  CA  TYR A 136      36.583  36.399   8.994  1.00 26.14     0.191 C 
ENDROOT
BRANCH   7   8
ATOM      8  CB  TYR A 136      37.367  36.835  10.240  1.00 28.16     0.060 C 
BRANCH   8   9
ATOM      9  CG  TYR A 136      36.871  38.141  10.810  1.00 31.88    -0.020 A 
ATOM     10  CD2 TYR A 136      37.170  38.518  12.121  1.00 32.67    -0.002 A 
ATOM     11  CE2 TYR A 136      36.703  39.732  12.642  1.00 33.89     0.027 A 
ATOM     12  CZ  TYR A 136      35.928  40.577  11.844  1.00 34.34     0.131 A 
ATOM     13  OH  TYR A 136      35.460  41.787  12.336  1.00 35.14    -0.190 OA
ATOM     14  CE1 TYR A 136      35.619  40.218  10.540  1.00 35.01     0.027 A 
ATOM     15  CD1 TYR A 136      36.085  39.003  10.034  1.00 33.57    -0.002 A 
ENDBRANCH   8   9
ENDBRANCH   7   8
END_RES TYR A 136
BEGIN_RES ASN A 133
REMARK  2 active torsions:
REMARK  status: ('A' for Active; 'I' for Inactive)
REMARK    7  A    between atoms: CA   and  CB  
REMARK    8  A    between atoms: CB   and  CG  
ROOT
ATOM     16  CA  ASN A 133      31.225  30.257  11.749  1.00 18.15     0.196 C 
ENDROOT
BRANCH  16  17
ATOM     17  CB  ASN A 133      30.092  31.240  11.460  1.00 18.27     0.126 C 
BRANCH  17  18
ATOM     18  CG  ASN A 133      28.756  30.579  11.322  1.00 18.94     0.276 C 
ATOM     19  OD1 ASN A 133      28.593  29.620  10.565  1.00 18.09    -0.269 OA
ATOM     20  ND2 ASN A 133      27.773  31.091  12.062  1.00 18.93    -0.107 N 
ENDBRANCH  17  18
ENDBRANCH  16  17
END_RES ASN A 133
