REMARK VINA RESULT:    -3.934      8.167     14.168
REMARK INTER + INTRA:          -7.497
REMARK INTER:                  -4.376
REMARK INTRA:                  -3.121
REMARK UNBOUND:                -3.103
REMARK SMILES Cc1cn(-c2ncccc2C#N)nn1
REMARK SMILES IDX 5 1 6 2 7 3 8 4 9 5 10 6 4 7 1 8 2 9 3 10 14 11 13 12 11 13
REMARK SMILES IDX 12 14
REMARK H PARENT
REMARK Flexibility Score: inf
ROOT
ATOM      1  C   UNL     1      22.325  31.876  -0.356  1.00  0.00     0.173 A 
ATOM      2  N   UNL     1      22.766  31.340   0.796  1.00  0.00    -0.236 NA
ATOM      3  C   UNL     1      23.088  30.047   0.936  1.00  0.00     0.113 A 
ATOM      4  C   UNL     1      22.985  29.165  -0.124  1.00  0.00     0.022 A 
ATOM      5  C   UNL     1      22.533  29.694  -1.321  1.00  0.00     0.025 A 
ATOM      6  C   UNL     1      22.205  31.041  -1.437  1.00  0.00     0.097 A 
ENDROOT
BRANCH   1   7
ATOM      7  N   UNL     1      21.996  33.265  -0.447  1.00  0.00    -0.201 N 
ATOM      8  C   UNL     1      22.568  36.902  -0.590  1.00  0.00     0.070 C 
ATOM      9  C   UNL     1      22.091  35.494  -0.553  1.00  0.00     0.080 A 
ATOM     10  C   UNL     1      22.824  34.329  -0.445  1.00  0.00     0.142 A 
ATOM     11  N   UNL     1      20.805  35.083  -0.618  1.00  0.00    -0.135 NA
ATOM     12  N   UNL     1      20.773  33.758  -0.555  1.00  0.00    -0.061 NA
ENDBRANCH   1   7
BRANCH   6  13
ATOM     13  C   UNL     1      21.737  31.595  -2.677  1.00  0.00     0.103 C 
ATOM     14  N   UNL     1      21.349  32.038  -3.653  1.00  0.00    -0.192 NA
ENDBRANCH   6  13
TORSDOF 2
BEGIN_RES LYS A 135
REMARK  4 active torsions:
REMARK  status: ('A' for Active; 'I' for Inactive)
REMARK    1  A    between atoms: CA   and  CB  
REMARK    2  A    between atoms: CB   and  CG  
REMARK    3  A    between atoms: CG   and  CD  
REMARK    4  A    between atoms: CD   and  CE  
ROOT
ATOM      1  CA  LYS A 135      33.193  34.663   9.290  1.00 25.02     0.186 C 
ENDROOT
BRANCH   1   2
ATOM      2  CB  LYS A 135      32.060  35.360  10.034  1.00 26.63     0.034 C 
BRANCH   2   3
ATOM      3  CG  LYS A 135      30.862  35.654   9.168  1.00 29.45     0.005 C 
BRANCH   3   4
ATOM      4  CD  LYS A 135      30.338  34.379   8.525  1.00 32.00     0.041 C 
BRANCH   4   5
ATOM      5  CE  LYS A 135      28.827  34.424   8.408  1.00 34.25     0.338 C 
ATOM      6  NZ  LYS A 135      28.178  33.780   9.583  1.00 35.99     0.618 N 
ENDBRANCH   4   5
ENDBRANCH   3   4
ENDBRANCH   2   3
ENDBRANCH   1   2
END_RES LYS A 135
BEGIN_RES TYR A 136
REMARK  2 active torsions:
REMARK  status: ('A' for Active; 'I' for Inactive)
REMARK    5  A    between atoms: CA   and  CB  
REMARK    6  A    between atoms: CB   and  CG  
ROOT
ATOM      7  CA  TYR A 136      36.583  36.399   8.994  1.00 26.14     0.191 C 
ENDROOT
BRANCH   7   8
ATOM      8  CB  TYR A 136      37.367  36.835  10.240  1.00 28.16     0.060 C 
BRANCH   8   9
ATOM      9  CG  TYR A 136      37.249  38.315  10.511  1.00 31.88    -0.020 A 
ATOM     10  CD2 TYR A 136      37.933  38.912  11.573  1.00 32.67    -0.002 A 
ATOM     11  CE2 TYR A 136      37.815  40.287  11.817  1.00 33.89     0.027 A 
ATOM     12  CZ  TYR A 136      37.005  41.071  10.993  1.00 34.34     0.131 A 
ATOM     13  OH  TYR A 136      36.879  42.436  11.212  1.00 35.14    -0.190 OA
ATOM     14  CE1 TYR A 136      36.318  40.494   9.935  1.00 35.01     0.027 A 
ATOM     15  CD1 TYR A 136      36.438  39.123   9.705  1.00 33.57    -0.002 A 
ENDBRANCH   8   9
ENDBRANCH   7   8
END_RES TYR A 136
BEGIN_RES ASN A 133
REMARK  2 active torsions:
REMARK  status: ('A' for Active; 'I' for Inactive)
REMARK    7  A    between atoms: CA   and  CB  
REMARK    8  A    between atoms: CB   and  CG  
ROOT
ATOM     16  CA  ASN A 133      31.225  30.257  11.749  1.00 18.15     0.196 C 
ENDROOT
BRANCH  16  17
ATOM     17  CB  ASN A 133      30.092  31.240  11.460  1.00 18.27     0.126 C 
BRANCH  17  18
ATOM     18  CG  ASN A 133      28.756  30.579  11.321  1.00 18.94     0.276 C 
ATOM     19  OD1 ASN A 133      28.596  29.614  10.570  1.00 18.09    -0.269 OA
ATOM     20  ND2 ASN A 133      27.770  31.098  12.051  1.00 18.93    -0.107 N 
ENDBRANCH  17  18
ENDBRANCH  16  17
END_RES ASN A 133
