REMARK VINA RESULT:    -3.482      8.235     11.848
REMARK INTER + INTRA:          -7.000
REMARK INTER:                  -3.768
REMARK INTRA:                  -3.232
REMARK UNBOUND:                -3.213
REMARK SMILES Cc1cn(-c2nc(C)nc(N)n2)nn1
REMARK SMILES IDX 5 1 12 2 10 3 9 4 7 5 8 6 6 7 4 8 1 9 2 10 3 11 14 12 13 13
REMARK SMILES IDX 11 14
REMARK H PARENT 11 15 11 16
REMARK Flexibility Score: inf
ROOT
ATOM      1  C   UNL     1      26.029  30.173  15.628  1.00  0.00     0.257 A 
ATOM      2  N   UNL     1      27.299  30.531  15.437  1.00  0.00    -0.175 NA
ATOM      3  C   UNL     1      28.233  30.177  16.326  1.00  0.00     0.225 A 
ATOM      4  N   UNL     1      27.887  29.461  17.410  1.00  0.00    -0.198 NA
ATOM      5  C   UNL     1      26.606  29.090  17.618  1.00  0.00     0.133 A 
ATOM      6  C   UNL     1      26.219  28.295  18.820  1.00  0.00     0.090 C 
ATOM      7  N   UNL     1      25.702  29.464  16.706  1.00  0.00    -0.196 NA
ENDROOT
BRANCH   1   8
ATOM      8  N   UNL     1      25.045  30.555  14.676  1.00  0.00    -0.185 N 
ATOM      9  C   UNL     1      22.120  30.176  12.523  1.00  0.00     0.070 C 
ATOM     10  C   UNL     1      23.313  30.577  13.292  1.00  0.00     0.080 A 
ATOM     11  C   UNL     1      24.021  29.820  14.191  1.00  0.00     0.144 A 
ATOM     12  N   UNL     1      23.924  31.762  13.246  1.00  0.00    -0.135 NA
ATOM     13  N   UNL     1      24.950  31.721  14.079  1.00  0.00    -0.059 NA
ENDBRANCH   1   8
BRANCH   3  14
ATOM     14  N   UNL     1      29.569  30.587  16.069  1.00  0.00    -0.368 N 
ATOM     15  H   UNL     1      30.330  30.346  16.737  1.00  0.00     0.159 HD
ATOM     16  H   UNL     1      29.813  31.130  15.217  1.00  0.00     0.159 HD
ENDBRANCH   3  14
TORSDOF 2
BEGIN_RES LYS A 135
REMARK  4 active torsions:
REMARK  status: ('A' for Active; 'I' for Inactive)
REMARK    1  A    between atoms: CA   and  CB  
REMARK    2  A    between atoms: CB   and  CG  
REMARK    3  A    between atoms: CG   and  CD  
REMARK    4  A    between atoms: CD   and  CE  
ROOT
ATOM      1  CA  LYS A 135      33.193  34.663   9.290  1.00 25.02     0.186 C 
ENDROOT
BRANCH   1   2
ATOM      2  CB  LYS A 135      32.060  35.360  10.034  1.00 26.63     0.034 C 
BRANCH   2   3
ATOM      3  CG  LYS A 135      30.805  35.512   9.214  1.00 29.45     0.005 C 
BRANCH   3   4
ATOM      4  CD  LYS A 135      30.107  34.171   9.047  1.00 32.00     0.041 C 
BRANCH   4   5
ATOM      5  CE  LYS A 135      28.662  34.370   8.633  1.00 34.25     0.338 C 
ATOM      6  NZ  LYS A 135      27.734  33.701   9.586  1.00 35.99     0.618 N 
ENDBRANCH   4   5
ENDBRANCH   3   4
ENDBRANCH   2   3
ENDBRANCH   1   2
END_RES LYS A 135
BEGIN_RES TYR A 136
REMARK  2 active torsions:
REMARK  status: ('A' for Active; 'I' for Inactive)
REMARK    5  A    between atoms: CA   and  CB  
REMARK    6  A    between atoms: CB   and  CG  
ROOT
ATOM      7  CA  TYR A 136      36.583  36.399   8.994  1.00 26.14     0.191 C 
ENDROOT
BRANCH   7   8
ATOM      8  CB  TYR A 136      37.367  36.835  10.240  1.00 28.16     0.060 C 
BRANCH   8   9
ATOM      9  CG  TYR A 136      37.206  38.305  10.542  1.00 31.88    -0.020 A 
ATOM     10  CD2 TYR A 136      37.754  38.870  11.696  1.00 32.67    -0.002 A 
ATOM     11  CE2 TYR A 136      37.597  40.236  11.968  1.00 33.89     0.027 A 
ATOM     12  CZ  TYR A 136      36.886  41.044  11.077  1.00 34.34     0.131 A 
ATOM     13  OH  TYR A 136      36.724  42.400  11.323  1.00 35.14    -0.190 OA
ATOM     14  CE1 TYR A 136      36.334  40.498   9.927  1.00 35.01     0.027 A 
ATOM     15  CD1 TYR A 136      36.491  39.135   9.670  1.00 33.57    -0.002 A 
ENDBRANCH   8   9
ENDBRANCH   7   8
END_RES TYR A 136
BEGIN_RES ASN A 133
REMARK  2 active torsions:
REMARK  status: ('A' for Active; 'I' for Inactive)
REMARK    7  A    between atoms: CA   and  CB  
REMARK    8  A    between atoms: CB   and  CG  
ROOT
ATOM     16  CA  ASN A 133      31.225  30.257  11.749  1.00 18.15     0.196 C 
ENDROOT
BRANCH  16  17
ATOM     17  CB  ASN A 133      30.092  31.240  11.460  1.00 18.27     0.126 C 
BRANCH  17  18
ATOM     18  CG  ASN A 133      28.759  30.577  11.304  1.00 18.94     0.276 C 
ATOM     19  OD1 ASN A 133      28.615  29.598  10.569  1.00 18.09    -0.269 OA
ATOM     20  ND2 ASN A 133      27.757  31.111  12.000  1.00 18.93    -0.107 N 
ENDBRANCH  17  18
ENDBRANCH  16  17
END_RES ASN A 133
