REMARK VINA RESULT:    -4.989      4.507      7.959
REMARK INTER + INTRA:          -6.594
REMARK INTER:                  -3.780
REMARK INTRA:                  -2.814
REMARK UNBOUND:                -1.313
REMARK SMILES Cc1cn(-c2ccccc2I)nn1
REMARK SMILES IDX 5 1 6 2 7 3 8 4 9 5 10 6 11 7 4 8 1 9 2 10 3 11 13 12 12 13
REMARK H PARENT
REMARK Flexibility Score: inf
ROOT
ATOM      1  C   UNL     1      26.430  37.197   7.308  1.00  0.00     0.080 A 
ATOM      2  C   UNL     1      27.056  35.979   7.142  1.00  0.00     0.029 A 
ATOM      3  C   UNL     1      28.158  35.821   6.315  1.00  0.00     0.002 A 
ATOM      4  C   UNL     1      28.663  36.916   5.620  1.00  0.00     0.001 A 
ATOM      5  C   UNL     1      28.050  38.144   5.773  1.00  0.00     0.017 A 
ATOM      6  C   UNL     1      26.956  38.273   6.602  1.00  0.00     0.039 A 
ATOM      7  I   UNL     1      26.042  40.164   6.813  1.00  0.00    -0.042 I 
ENDROOT
BRANCH   1   8
ATOM      8  N   UNL     1      25.294  37.340   8.165  1.00  0.00    -0.219 N 
ATOM      9  C   UNL     1      23.369  37.753  11.215  1.00  0.00     0.070 C 
ATOM     10  C   UNL     1      23.929  37.582   9.838  1.00  0.00     0.080 A 
ATOM     11  C   UNL     1      25.252  37.482   9.486  1.00  0.00     0.140 A 
ATOM     12  N   UNL     1      23.221  37.495   8.700  1.00  0.00    -0.135 NA
ATOM     13  N   UNL     1      24.052  37.352   7.707  1.00  0.00    -0.062 NA
ENDBRANCH   1   8
TORSDOF 1
BEGIN_RES LYS A 135
REMARK  4 active torsions:
REMARK  status: ('A' for Active; 'I' for Inactive)
REMARK    1  A    between atoms: CA   and  CB  
REMARK    2  A    between atoms: CB   and  CG  
REMARK    3  A    between atoms: CG   and  CD  
REMARK    4  A    between atoms: CD   and  CE  
ROOT
ATOM      1  CA  LYS A 135      33.193  34.663   9.290  1.00 25.02     0.186 C 
ENDROOT
BRANCH   1   2
ATOM      2  CB  LYS A 135      32.060  35.360  10.034  1.00 26.63     0.034 C 
BRANCH   2   3
ATOM      3  CG  LYS A 135      30.804  35.510   9.215  1.00 29.45     0.005 C 
BRANCH   3   4
ATOM      4  CD  LYS A 135      30.251  34.147   8.827  1.00 32.00     0.041 C 
BRANCH   4   5
ATOM      5  CE  LYS A 135      28.856  33.958   9.390  1.00 34.25     0.338 C 
ATOM      6  NZ  LYS A 135      28.448  35.127  10.218  1.00 35.99     0.618 N 
ENDBRANCH   4   5
ENDBRANCH   3   4
ENDBRANCH   2   3
ENDBRANCH   1   2
END_RES LYS A 135
BEGIN_RES TYR A 136
REMARK  2 active torsions:
REMARK  status: ('A' for Active; 'I' for Inactive)
REMARK    5  A    between atoms: CA   and  CB  
REMARK    6  A    between atoms: CB   and  CG  
ROOT
ATOM      7  CA  TYR A 136      36.583  36.399   8.994  1.00 26.14     0.191 C 
ENDROOT
BRANCH   7   8
ATOM      8  CB  TYR A 136      37.367  36.835  10.240  1.00 28.16     0.060 C 
BRANCH   8   9
ATOM      9  CG  TYR A 136      37.179  38.297  10.561  1.00 31.88    -0.020 A 
ATOM     10  CD2 TYR A 136      37.895  38.908  11.594  1.00 32.67    -0.002 A 
ATOM     11  CE2 TYR A 136      37.712  40.267  11.885  1.00 33.89     0.027 A 
ATOM     12  CZ  TYR A 136      36.804  41.021  11.137  1.00 34.34     0.131 A 
ATOM     13  OH  TYR A 136      36.612  42.370  11.403  1.00 35.14    -0.190 OA
ATOM     14  CE1 TYR A 136      36.084  40.430  10.109  1.00 35.01     0.027 A 
ATOM     15  CD1 TYR A 136      36.270  39.074   9.832  1.00 33.57    -0.002 A 
ENDBRANCH   8   9
ENDBRANCH   7   8
END_RES TYR A 136
BEGIN_RES ASN A 133
REMARK  2 active torsions:
REMARK  status: ('A' for Active; 'I' for Inactive)
REMARK    7  A    between atoms: CA   and  CB  
REMARK    8  A    between atoms: CB   and  CG  
ROOT
ATOM     16  CA  ASN A 133      31.225  30.257  11.749  1.00 18.15     0.196 C 
ENDROOT
BRANCH  16  17
ATOM     17  CB  ASN A 133      30.092  31.240  11.460  1.00 18.27     0.126 C 
BRANCH  17  18
ATOM     18  CG  ASN A 133      28.753  30.581  11.341  1.00 18.94     0.276 C 
ATOM     19  OD1 ASN A 133      28.589  29.594  10.621  1.00 18.09    -0.269 OA
ATOM     20  ND2 ASN A 133      27.768  31.128  12.053  1.00 18.93    -0.107 N 
ENDBRANCH  17  18
ENDBRANCH  16  17
END_RES ASN A 133
