REMARK VINA RESULT:    -3.943      1.608      2.110
REMARK INTER + INTRA:          -8.362
REMARK INTER:                  -4.906
REMARK INTRA:                  -3.456
REMARK UNBOUND:                -3.496
REMARK SMILES Cc1cn(CC(=O)NCc2cccs2)nn1
REMARK SMILES IDX 6 1 7 2 8 3 5 5 4 6 1 7 2 8 3 9 16 10 15 11 9 12 10 13 11 14
REMARK SMILES IDX 14 15 12 16 13 17
REMARK H PARENT 8 4
REMARK Flexibility Score: inf
ROOT
ATOM      1  C   UNL     1      33.077  35.426  15.146  1.00  0.00     0.242 C 
ATOM      2  O   UNL     1      32.729  36.512  14.615  1.00  0.00    -0.273 OA
ATOM      3  N   UNL     1      33.994  34.625  14.440  1.00  0.00    -0.350 N 
ATOM      4  H   UNL     1      34.316  33.722  14.817  1.00  0.00     0.163 HD
ENDROOT
BRANCH   1   5
ATOM      5  C   UNL     1      32.497  35.083  16.466  1.00  0.00     0.245 C 
BRANCH   5   6
ATOM      6  N   UNL     1      31.810  33.825  16.436  1.00  0.00    -0.243 N 
ATOM      7  C   UNL     1      29.706  31.183  17.895  1.00  0.00     0.070 C 
ATOM      8  C   UNL     1      30.570  32.108  17.078  1.00  0.00     0.080 A 
ATOM      9  C   UNL     1      31.087  33.319  17.470  1.00  0.00     0.134 A 
ATOM     10  N   UNL     1      31.008  31.928  15.806  1.00  0.00    -0.136 NA
ATOM     11  N   UNL     1      31.740  32.970  15.461  1.00  0.00    -0.067 NA
ENDBRANCH   5   6
ENDBRANCH   1   5
BRANCH   3  12
ATOM     12  C   UNL     1      34.528  35.034  13.133  1.00  0.00     0.162 C 
BRANCH  12  13
ATOM     13  C   UNL     1      35.913  34.527  13.096  1.00  0.00     0.024 A 
ATOM     14  C   UNL     1      36.564  33.630  12.332  1.00  0.00     0.017 A 
ATOM     15  S   UNL     1      37.214  35.078  14.234  1.00  0.00    -0.147 S 
ATOM     16  C   UNL     1      37.850  33.369  12.542  1.00  0.00     0.012 A 
ATOM     17  C   UNL     1      38.489  34.047  13.564  1.00  0.00     0.065 A 
ENDBRANCH  12  13
ENDBRANCH   3  12
TORSDOF 4
BEGIN_RES LYS A 135
REMARK  4 active torsions:
REMARK  status: ('A' for Active; 'I' for Inactive)
REMARK    1  A    between atoms: CA   and  CB  
REMARK    2  A    between atoms: CB   and  CG  
REMARK    3  A    between atoms: CG   and  CD  
REMARK    4  A    between atoms: CD   and  CE  
ROOT
ATOM      1  CA  LYS A 135      33.193  34.663   9.290  1.00 25.02     0.186 C 
ENDROOT
BRANCH   1   2
ATOM      2  CB  LYS A 135      32.060  35.360  10.034  1.00 26.63     0.034 C 
BRANCH   2   3
ATOM      3  CG  LYS A 135      30.697  34.800   9.718  1.00 29.45     0.005 C 
BRANCH   3   4
ATOM      4  CD  LYS A 135      30.575  34.493   8.233  1.00 32.00     0.041 C 
BRANCH   4   5
ATOM      5  CE  LYS A 135      29.215  34.918   7.712  1.00 34.25     0.338 C 
ATOM      6  NZ  LYS A 135      29.047  36.395   7.797  1.00 35.99     0.618 N 
ENDBRANCH   4   5
ENDBRANCH   3   4
ENDBRANCH   2   3
ENDBRANCH   1   2
END_RES LYS A 135
BEGIN_RES TYR A 136
REMARK  2 active torsions:
REMARK  status: ('A' for Active; 'I' for Inactive)
REMARK    5  A    between atoms: CA   and  CB  
REMARK    6  A    between atoms: CB   and  CG  
ROOT
ATOM      7  CA  TYR A 136      36.583  36.399   8.994  1.00 26.14     0.191 C 
ENDROOT
BRANCH   7   8
ATOM      8  CB  TYR A 136      37.367  36.835  10.240  1.00 28.16     0.060 C 
BRANCH   8   9
ATOM      9  CG  TYR A 136      37.135  38.283  10.594  1.00 31.88    -0.020 A 
ATOM     10  CD2 TYR A 136      36.471  39.144   9.718  1.00 32.67    -0.002 A 
ATOM     11  CE2 TYR A 136      36.262  40.489  10.056  1.00 33.89     0.027 A 
ATOM     12  CZ  TYR A 136      36.723  40.976  11.281  1.00 34.34     0.131 A 
ATOM     13  OH  TYR A 136      36.521  42.301  11.640  1.00 35.14    -0.190 OA
ATOM     14  CE1 TYR A 136      37.386  40.135  12.163  1.00 35.01     0.027 A 
ATOM     15  CD1 TYR A 136      37.593  38.799  11.813  1.00 33.57    -0.002 A 
ENDBRANCH   8   9
ENDBRANCH   7   8
END_RES TYR A 136
BEGIN_RES ASN A 133
REMARK  2 active torsions:
REMARK  status: ('A' for Active; 'I' for Inactive)
REMARK    7  A    between atoms: CA   and  CB  
REMARK    8  A    between atoms: CB   and  CG  
ROOT
ATOM     16  CA  ASN A 133      31.225  30.257  11.749  1.00 18.15     0.196 C 
ENDROOT
BRANCH  16  17
ATOM     17  CB  ASN A 133      30.092  31.240  11.460  1.00 18.27     0.126 C 
BRANCH  17  18
ATOM     18  CG  ASN A 133      28.751  30.582  11.352  1.00 18.94     0.276 C 
ATOM     19  OD1 ASN A 133      28.578  29.601  10.627  1.00 18.09    -0.269 OA
ATOM     20  ND2 ASN A 133      27.776  31.124  12.081  1.00 18.93    -0.107 N 
ENDBRANCH  17  18
ENDBRANCH  16  17
END_RES ASN A 133
