REMARK VINA RESULT:    -6.302      4.105      7.436
REMARK INTER + INTRA:          -8.798
REMARK INTER:                  -5.549
REMARK INTRA:                  -3.248
REMARK UNBOUND:                -1.391
REMARK SMILES Cc1cn(C(c2ccccc2)c2ccccc2)nn1
REMARK SMILES IDX 5 1 4 2 1 3 2 4 3 5 19 6 18 7 6 8 7 9 11 10 8 11 10 12 9 13
REMARK SMILES IDX 12 14 13 15 17 16 14 17 16 18 15 19
REMARK H PARENT
REMARK Flexibility Score: inf
ROOT
ATOM      1  C   UNL     1      25.574  37.981   8.372  1.00  0.00     0.169 C 
ENDROOT
BRANCH   1   2
ATOM      2  N   UNL     1      26.184  38.194   9.683  1.00  0.00    -0.240 N 
ATOM      3  C   UNL     1      28.729  37.978  12.297  1.00  0.00     0.070 C 
ATOM      4  C   UNL     1      27.577  38.191  11.415  1.00  0.00     0.080 A 
ATOM      5  C   UNL     1      27.392  37.775  10.101  1.00  0.00     0.135 A 
ATOM      6  N   UNL     1      26.449  38.853  11.733  1.00  0.00    -0.136 NA
ATOM      7  N   UNL     1      25.638  38.842  10.695  1.00  0.00    -0.066 NA
ENDBRANCH   1   2
BRANCH   1   8
ATOM      8  C   UNL     1      24.340  37.170   8.429  1.00  0.00    -0.019 A 
ATOM      9  C   UNL     1      24.177  36.096   9.263  1.00  0.00     0.006 A 
ATOM     10  C   UNL     1      23.259  37.488   7.610  1.00  0.00     0.006 A 
ATOM     11  C   UNL     1      22.975  35.378   9.266  1.00  0.00     0.000 A 
ATOM     12  C   UNL     1      22.081  36.785   7.612  1.00  0.00     0.000 A 
ATOM     13  C   UNL     1      21.926  35.714   8.447  1.00  0.00     0.000 A 
ENDBRANCH   1   8
BRANCH   1  14
ATOM     14  C   UNL     1      26.554  37.534   7.380  1.00  0.00    -0.019 A 
ATOM     15  C   UNL     1      27.169  38.358   6.464  1.00  0.00     0.006 A 
ATOM     16  C   UNL     1      26.927  36.204   7.335  1.00  0.00     0.006 A 
ATOM     17  C   UNL     1      28.084  37.874   5.579  1.00  0.00     0.000 A 
ATOM     18  C   UNL     1      27.849  35.689   6.451  1.00  0.00     0.000 A 
ATOM     19  C   UNL     1      28.428  36.545   5.566  1.00  0.00     0.000 A 
ENDBRANCH   1  14
TORSDOF 3
BEGIN_RES LYS A 135
REMARK  4 active torsions:
REMARK  status: ('A' for Active; 'I' for Inactive)
REMARK    1  A    between atoms: CA   and  CB  
REMARK    2  A    between atoms: CB   and  CG  
REMARK    3  A    between atoms: CG   and  CD  
REMARK    4  A    between atoms: CD   and  CE  
ROOT
ATOM      1  CA  LYS A 135      33.193  34.663   9.290  1.00 25.02     0.186 C 
ENDROOT
BRANCH   1   2
ATOM      2  CB  LYS A 135      32.060  35.360  10.034  1.00 26.63     0.034 C 
BRANCH   2   3
ATOM      3  CG  LYS A 135      30.776  35.428   9.249  1.00 29.45     0.005 C 
BRANCH   3   4
ATOM      4  CD  LYS A 135      30.200  34.036   9.040  1.00 32.00     0.041 C 
BRANCH   4   5
ATOM      5  CE  LYS A 135      28.764  33.975   9.522  1.00 34.25     0.338 C 
ATOM      6  NZ  LYS A 135      28.649  34.454  10.928  1.00 35.99     0.618 N 
ENDBRANCH   4   5
ENDBRANCH   3   4
ENDBRANCH   2   3
ENDBRANCH   1   2
END_RES LYS A 135
BEGIN_RES TYR A 136
REMARK  2 active torsions:
REMARK  status: ('A' for Active; 'I' for Inactive)
REMARK    5  A    between atoms: CA   and  CB  
REMARK    6  A    between atoms: CB   and  CG  
ROOT
ATOM      7  CA  TYR A 136      36.583  36.399   8.994  1.00 26.14     0.191 C 
ENDROOT
BRANCH   7   8
ATOM      8  CB  TYR A 136      37.367  36.835  10.240  1.00 28.16     0.060 C 
BRANCH   8   9
ATOM      9  CG  TYR A 136      37.181  38.298  10.560  1.00 31.88    -0.020 A 
ATOM     10  CD2 TYR A 136      37.283  38.770  11.870  1.00 32.67    -0.002 A 
ATOM     11  CE2 TYR A 136      37.107  40.131  12.158  1.00 33.89     0.027 A 
ATOM     12  CZ  TYR A 136      36.825  41.027  11.124  1.00 34.34     0.131 A 
ATOM     13  OH  TYR A 136      36.654  42.379  11.383  1.00 35.14    -0.190 OA
ATOM     14  CE1 TYR A 136      36.719  40.575   9.816  1.00 35.01     0.027 A 
ATOM     15  CD1 TYR A 136      36.890  39.217   9.544  1.00 33.57    -0.002 A 
ENDBRANCH   8   9
ENDBRANCH   7   8
END_RES TYR A 136
BEGIN_RES ASN A 133
REMARK  2 active torsions:
REMARK  status: ('A' for Active; 'I' for Inactive)
REMARK    7  A    between atoms: CA   and  CB  
REMARK    8  A    between atoms: CB   and  CG  
ROOT
ATOM     16  CA  ASN A 133      31.225  30.257  11.749  1.00 18.15     0.196 C 
ENDROOT
BRANCH  16  17
ATOM     17  CB  ASN A 133      30.092  31.240  11.460  1.00 18.27     0.126 C 
BRANCH  17  18
ATOM     18  CG  ASN A 133      28.755  30.579  11.325  1.00 18.94     0.276 C 
ATOM     19  OD1 ASN A 133      28.604  29.584  10.614  1.00 18.09    -0.269 OA
ATOM     20  ND2 ASN A 133      27.759  31.134  12.014  1.00 18.93    -0.107 N 
ENDBRANCH  17  18
ENDBRANCH  16  17
END_RES ASN A 133
