REMARK VINA RESULT:    -3.867      8.353     14.704
REMARK INTER + INTRA:          -7.312
REMARK INTER:                  -4.037
REMARK INTRA:                  -3.275
REMARK UNBOUND:                -3.218
REMARK SMILES Cc1cn(-c2ccc3c(c2)OCO3)nn1
REMARK SMILES IDX 5 1 6 2 7 3 8 4 9 5 10 6 11 7 12 8 13 9 4 10 1 11 2 12 3 13
REMARK SMILES IDX 15 14 14 15
REMARK H PARENT
REMARK Flexibility Score: inf
ROOT
ATOM      1  C   UNL     1      29.986  31.563  17.590  1.00  0.00     0.070 A 
ATOM      2  C   UNL     1      30.305  31.327  16.271  1.00  0.00     0.032 A 
ATOM      3  C   UNL     1      31.131  32.195  15.589  1.00  0.00     0.053 A 
ATOM      4  C   UNL     1      31.623  33.305  16.280  1.00  0.00     0.165 A 
ATOM      5  C   UNL     1      31.307  33.547  17.597  1.00  0.00     0.167 A 
ATOM      6  C   UNL     1      30.486  32.665  18.243  1.00  0.00     0.079 A 
ATOM      7  O   UNL     1      31.963  34.737  17.980  1.00  0.00    -0.454 OA
ATOM      8  C   UNL     1      32.259  35.449  16.793  1.00  0.00     0.468 C 
ATOM      9  O   UNL     1      32.460  34.351  15.891  1.00  0.00    -0.454 OA
ENDROOT
BRANCH   1  10
ATOM     10  N   UNL     1      29.119  30.635  18.274  1.00  0.00    -0.220 N 
ATOM     11  C   UNL     1      26.224  28.379  18.563  1.00  0.00     0.070 C 
ATOM     12  C   UNL     1      27.456  29.228  18.705  1.00  0.00     0.080 A 
ATOM     13  C   UNL     1      28.025  30.049  17.752  1.00  0.00     0.140 A 
ATOM     14  N   UNL     1      28.238  29.346  19.792  1.00  0.00    -0.135 NA
ATOM     15  N   UNL     1      29.219  30.191  19.505  1.00  0.00    -0.062 NA
ENDBRANCH   1  10
TORSDOF 1
BEGIN_RES LYS A 135
REMARK  4 active torsions:
REMARK  status: ('A' for Active; 'I' for Inactive)
REMARK    1  A    between atoms: CA   and  CB  
REMARK    2  A    between atoms: CB   and  CG  
REMARK    3  A    between atoms: CG   and  CD  
REMARK    4  A    between atoms: CD   and  CE  
ROOT
ATOM      1  CA  LYS A 135      33.193  34.663   9.290  1.00 25.02     0.186 C 
ENDROOT
BRANCH   1   2
ATOM      2  CB  LYS A 135      32.060  35.360  10.034  1.00 26.63     0.034 C 
BRANCH   2   3
ATOM      3  CG  LYS A 135      30.832  35.582   9.190  1.00 29.45     0.005 C 
BRANCH   3   4
ATOM      4  CD  LYS A 135      30.229  34.254   8.759  1.00 32.00     0.041 C 
BRANCH   4   5
ATOM      5  CE  LYS A 135      28.736  34.395   8.533  1.00 34.25     0.338 C 
ATOM      6  NZ  LYS A 135      27.963  33.709   9.606  1.00 35.99     0.618 N 
ENDBRANCH   4   5
ENDBRANCH   3   4
ENDBRANCH   2   3
ENDBRANCH   1   2
END_RES LYS A 135
BEGIN_RES TYR A 136
REMARK  2 active torsions:
REMARK  status: ('A' for Active; 'I' for Inactive)
REMARK    5  A    between atoms: CA   and  CB  
REMARK    6  A    between atoms: CB   and  CG  
ROOT
ATOM      7  CA  TYR A 136      36.583  36.399   8.994  1.00 26.14     0.191 C 
ENDROOT
BRANCH   7   8
ATOM      8  CB  TYR A 136      37.367  36.835  10.240  1.00 28.16     0.060 C 
BRANCH   8   9
ATOM      9  CG  TYR A 136      37.174  38.296  10.565  1.00 31.88    -0.020 A 
ATOM     10  CD2 TYR A 136      37.668  38.844  11.751  1.00 32.67    -0.002 A 
ATOM     11  CE2 TYR A 136      37.481  40.202  12.045  1.00 33.89     0.027 A 
ATOM     12  CZ  TYR A 136      36.794  41.018  11.143  1.00 34.34     0.131 A 
ATOM     13  OH  TYR A 136      36.604  42.367  11.410  1.00 35.14    -0.190 OA
ATOM     14  CE1 TYR A 136      36.296  40.490   9.961  1.00 35.01     0.027 A 
ATOM     15  CD1 TYR A 136      36.482  39.135   9.683  1.00 33.57    -0.002 A 
ENDBRANCH   8   9
ENDBRANCH   7   8
END_RES TYR A 136
BEGIN_RES ASN A 133
REMARK  2 active torsions:
REMARK  status: ('A' for Active; 'I' for Inactive)
REMARK    7  A    between atoms: CA   and  CB  
REMARK    8  A    between atoms: CB   and  CG  
ROOT
ATOM     16  CA  ASN A 133      31.225  30.257  11.749  1.00 18.15     0.196 C 
ENDROOT
BRANCH  16  17
ATOM     17  CB  ASN A 133      30.092  31.240  11.460  1.00 18.27     0.126 C 
BRANCH  17  18
ATOM     18  CG  ASN A 133      28.750  30.584  11.363  1.00 18.94     0.276 C 
ATOM     19  OD1 ASN A 133      28.565  29.614  10.625  1.00 18.09    -0.269 OA
ATOM     20  ND2 ASN A 133      27.786  31.113  12.116  1.00 18.93    -0.107 N 
ENDBRANCH  17  18
ENDBRANCH  16  17
END_RES ASN A 133
