REMARK VINA RESULT:    -3.068      6.979      7.912
REMARK INTER + INTRA:          -6.665
REMARK INTER:                  -4.337
REMARK INTRA:                  -2.328
REMARK UNBOUND:                -3.239
REMARK SMILES Cc1cn(Cc2ccsc2)nn1
REMARK SMILES IDX 5 1 4 2 1 3 2 4 3 5 12 6 11 7 6 8 7 9 10 10 8 11 9 12
REMARK H PARENT
REMARK Flexibility Score: inf
ROOT
ATOM      1  C   UNL     1      26.063  36.749   7.480  1.00  0.00     0.182 C 
ENDROOT
BRANCH   1   2
ATOM      2  N   UNL     1      27.158  37.295   6.727  1.00  0.00    -0.248 N 
ATOM      3  C   UNL     1      29.846  39.569   5.789  1.00  0.00     0.070 C 
ATOM      4  C   UNL     1      28.803  38.534   6.005  1.00  0.00     0.080 A 
ATOM      5  C   UNL     1      27.864  38.402   6.978  1.00  0.00     0.134 A 
ATOM      6  N   UNL     1      28.644  37.491   5.172  1.00  0.00    -0.136 NA
ATOM      7  N   UNL     1      27.655  36.770   5.630  1.00  0.00    -0.067 NA
ENDBRANCH   1   2
BRANCH   1   8
ATOM      8  C   UNL     1      26.562  35.813   8.571  1.00  0.00    -0.016 A 
ATOM      9  C   UNL     1      27.091  34.619   8.386  1.00  0.00     0.017 A 
ATOM     10  C   UNL     1      26.465  36.228   9.945  1.00  0.00     0.070 A 
ATOM     11  C   UNL     1      27.516  33.835   9.431  1.00  0.00     0.065 A 
ATOM     12  S   UNL     1      27.114  34.930  10.851  1.00  0.00    -0.152 S 
ENDBRANCH   1   8
TORSDOF 2
BEGIN_RES LYS A 135
REMARK  4 active torsions:
REMARK  status: ('A' for Active; 'I' for Inactive)
REMARK    1  A    between atoms: CA   and  CB  
REMARK    2  A    between atoms: CB   and  CG  
REMARK    3  A    between atoms: CG   and  CD  
REMARK    4  A    between atoms: CD   and  CE  
ROOT
ATOM      1  CA  LYS A 135      33.193  34.663   9.290  1.00 25.02     0.186 C 
ENDROOT
BRANCH   1   2
ATOM      2  CB  LYS A 135      32.060  35.360  10.034  1.00 26.63     0.034 C 
BRANCH   2   3
ATOM      3  CG  LYS A 135      30.782  35.447   9.240  1.00 29.45     0.005 C 
BRANCH   3   4
ATOM      4  CD  LYS A 135      30.176  36.838   9.351  1.00 32.00     0.041 C 
BRANCH   4   5
ATOM      5  CE  LYS A 135      31.192  37.820   9.901  1.00 34.25     0.338 C 
ATOM      6  NZ  LYS A 135      31.555  38.844   8.882  1.00 35.99     0.618 N 
ENDBRANCH   4   5
ENDBRANCH   3   4
ENDBRANCH   2   3
ENDBRANCH   1   2
END_RES LYS A 135
BEGIN_RES TYR A 136
REMARK  2 active torsions:
REMARK  status: ('A' for Active; 'I' for Inactive)
REMARK    5  A    between atoms: CA   and  CB  
REMARK    6  A    between atoms: CB   and  CG  
ROOT
ATOM      7  CA  TYR A 136      36.583  36.399   8.994  1.00 26.14     0.191 C 
ENDROOT
BRANCH   7   8
ATOM      8  CB  TYR A 136      37.367  36.835  10.240  1.00 28.16     0.060 C 
BRANCH   8   9
ATOM      9  CG  TYR A 136      37.319  38.327  10.463  1.00 31.88    -0.020 A 
ATOM     10  CD2 TYR A 136      36.424  39.135   9.759  1.00 32.67    -0.002 A 
ATOM     11  CE2 TYR A 136      36.388  40.519   9.973  1.00 33.89     0.027 A 
ATOM     12  CZ  TYR A 136      37.257  41.101  10.899  1.00 34.34     0.131 A 
ATOM     13  OH  TYR A 136      37.234  42.469  11.132  1.00 35.14    -0.190 OA
ATOM     14  CE1 TYR A 136      38.154  40.313  11.607  1.00 35.01     0.027 A 
ATOM     15  CD1 TYR A 136      38.184  38.936  11.381  1.00 33.57    -0.002 A 
ENDBRANCH   8   9
ENDBRANCH   7   8
END_RES TYR A 136
BEGIN_RES ASN A 133
REMARK  2 active torsions:
REMARK  status: ('A' for Active; 'I' for Inactive)
REMARK    7  A    between atoms: CA   and  CB  
REMARK    8  A    between atoms: CB   and  CG  
ROOT
ATOM     16  CA  ASN A 133      31.225  30.257  11.749  1.00 18.15     0.196 C 
ENDROOT
BRANCH  16  17
ATOM     17  CB  ASN A 133      30.092  31.240  11.460  1.00 18.27     0.126 C 
BRANCH  17  18
ATOM     18  CG  ASN A 133      28.749  30.584  11.364  1.00 18.94     0.276 C 
ATOM     19  OD1 ASN A 133      28.577  29.582  10.668  1.00 18.09    -0.269 OA
ATOM     20  ND2 ASN A 133      27.772  31.151  12.071  1.00 18.93    -0.107 N 
ENDBRANCH  17  18
ENDBRANCH  16  17
END_RES ASN A 133
