REMARK VINA RESULT:    -3.982      5.723      9.029
REMARK INTER + INTRA:          -7.082
REMARK INTER:                  -3.884
REMARK INTRA:                  -3.198
REMARK UNBOUND:                -2.867
REMARK SMILES Cc1cn(-c2ccc(Cl)cc2)nn1
REMARK SMILES IDX 5 1 6 2 7 3 8 4 9 5 10 6 11 7 4 8 1 9 2 10 3 11 13 12 12 13
REMARK H PARENT
REMARK Flexibility Score: inf
ROOT
ATOM      1  C   UNL     1      35.071  38.938   4.371  1.00  0.00     0.066 A 
ATOM      2  C   UNL     1      34.962  39.153   3.012  1.00  0.00     0.030 A 
ATOM      3  C   UNL     1      35.880  38.704   2.100  1.00  0.00     0.023 A 
ATOM      4  C   UNL     1      36.990  37.991   2.542  1.00  0.00     0.041 A 
ATOM      5  Cl  UNL     1      38.182  37.404   1.396  1.00  0.00    -0.084 Cl
ATOM      6  C   UNL     1      37.120  37.763   3.906  1.00  0.00     0.023 A 
ATOM      7  C   UNL     1      36.177  38.230   4.801  1.00  0.00     0.030 A 
ENDROOT
BRANCH   1   8
ATOM      8  N   UNL     1      34.104  39.415   5.300  1.00  0.00    -0.220 N 
ATOM      9  C   UNL     1      32.903  40.335   8.651  1.00  0.00     0.070 C 
ATOM     10  C   UNL     1      33.149  40.036   7.222  1.00  0.00     0.080 A 
ATOM     11  C   UNL     1      34.297  39.546   6.640  1.00  0.00     0.140 A 
ATOM     12  N   UNL     1      32.274  40.193   6.216  1.00  0.00    -0.135 NA
ATOM     13  N   UNL     1      32.862  39.819   5.092  1.00  0.00    -0.062 NA
ENDBRANCH   1   8
TORSDOF 1
BEGIN_RES LYS A 135
REMARK  4 active torsions:
REMARK  status: ('A' for Active; 'I' for Inactive)
REMARK    1  A    between atoms: CA   and  CB  
REMARK    2  A    between atoms: CB   and  CG  
REMARK    3  A    between atoms: CG   and  CD  
REMARK    4  A    between atoms: CD   and  CE  
ROOT
ATOM      1  CA  LYS A 135      33.193  34.663   9.290  1.00 25.02     0.186 C 
ENDROOT
BRANCH   1   2
ATOM      2  CB  LYS A 135      32.060  35.360  10.034  1.00 26.63     0.034 C 
BRANCH   2   3
ATOM      3  CG  LYS A 135      30.705  34.755   9.772  1.00 29.45     0.005 C 
BRANCH   3   4
ATOM      4  CD  LYS A 135      30.472  34.586   8.279  1.00 32.00     0.041 C 
BRANCH   4   5
ATOM      5  CE  LYS A 135      29.015  34.833   7.936  1.00 34.25     0.338 C 
ATOM      6  NZ  LYS A 135      28.885  35.568   6.648  1.00 35.99     0.618 N 
ENDBRANCH   4   5
ENDBRANCH   3   4
ENDBRANCH   2   3
ENDBRANCH   1   2
END_RES LYS A 135
BEGIN_RES TYR A 136
REMARK  2 active torsions:
REMARK  status: ('A' for Active; 'I' for Inactive)
REMARK    5  A    between atoms: CA   and  CB  
REMARK    6  A    between atoms: CB   and  CG  
ROOT
ATOM      7  CA  TYR A 136      36.583  36.399   8.994  1.00 26.14     0.191 C 
ENDROOT
BRANCH   7   8
ATOM      8  CB  TYR A 136      37.367  36.835  10.240  1.00 28.16     0.060 C 
BRANCH   8   9
ATOM      9  CG  TYR A 136      37.280  38.321  10.490  1.00 31.88    -0.020 A 
ATOM     10  CD2 TYR A 136      37.899  38.905  11.597  1.00 32.67    -0.002 A 
ATOM     11  CE2 TYR A 136      37.811  40.286  11.821  1.00 33.89     0.027 A 
ATOM     12  CZ  TYR A 136      37.096  41.089  10.929  1.00 34.34     0.131 A 
ATOM     13  OH  TYR A 136      37.001  42.460  11.127  1.00 35.14    -0.190 OA
ATOM     14  CE1 TYR A 136      36.474  40.525   9.825  1.00 35.01     0.027 A 
ATOM     15  CD1 TYR A 136      36.564  39.148   9.615  1.00 33.57    -0.002 A 
ENDBRANCH   8   9
ENDBRANCH   7   8
END_RES TYR A 136
BEGIN_RES ASN A 133
REMARK  2 active torsions:
REMARK  status: ('A' for Active; 'I' for Inactive)
REMARK    7  A    between atoms: CA   and  CB  
REMARK    8  A    between atoms: CB   and  CG  
ROOT
ATOM     16  CA  ASN A 133      31.225  30.257  11.749  1.00 18.15     0.196 C 
ENDROOT
BRANCH  16  17
ATOM     17  CB  ASN A 133      30.092  31.240  11.460  1.00 18.27     0.126 C 
BRANCH  17  18
ATOM     18  CG  ASN A 133      28.751  30.582  11.354  1.00 18.94     0.276 C 
ATOM     19  OD1 ASN A 133      28.575  29.607  10.621  1.00 18.09    -0.269 OA
ATOM     20  ND2 ASN A 133      27.779  31.118  12.092  1.00 18.93    -0.107 N 
ENDBRANCH  17  18
ENDBRANCH  16  17
END_RES ASN A 133
