REMARK VINA RESULT:    -3.948      1.763      5.770
REMARK INTER + INTRA:          -9.941
REMARK INTER:                  -5.972
REMARK INTRA:                  -3.969
REMARK UNBOUND:                -4.262
REMARK SMILES Cc1cn(CC(=O)NCC(O)Cn2ccnc2[N+](=O)[O-])nn1
REMARK SMILES IDX 9 1 8 2 6 3 7 4 5 6 4 7 1 8 2 9 3 10 22 11 21 12 10 13 11 14
REMARK SMILES IDX 12 16 13 17 14 18 17 19 15 20 16 21 18 22 19 23 20 24
REMARK H PARENT 8 5 11 15
REMARK Flexibility Score: inf
ROOT
ATOM      1  C   UNL     1      35.538  36.139  13.440  1.00  0.00     0.151 C 
ENDROOT
BRANCH   1   2
ATOM      2  N   UNL     1      36.809  35.962  14.100  1.00  0.00    -0.352 N 
ATOM      3  C   UNL     1      37.965  35.377  13.522  1.00  0.00     0.241 C 
ATOM      4  O   UNL     1      37.923  34.974  12.340  1.00  0.00    -0.273 OA
ATOM      5  H   UNL     1      36.881  36.301  15.115  1.00  0.00     0.163 HD
BRANCH   3   6
ATOM      6  C   UNL     1      39.189  35.269  14.365  1.00  0.00     0.245 C 
BRANCH   6   7
ATOM      7  N   UNL     1      38.846  35.006  15.735  1.00  0.00    -0.243 N 
ATOM      8  C   UNL     1      38.311  33.088  18.796  1.00  0.00     0.070 C 
ATOM      9  C   UNL     1      38.455  34.074  17.684  1.00  0.00     0.080 A 
ATOM     10  C   UNL     1      38.861  33.837  16.399  1.00  0.00     0.134 A 
ATOM     11  N   UNL     1      38.198  35.390  17.776  1.00  0.00    -0.136 NA
ATOM     12  N   UNL     1      38.441  35.931  16.590  1.00  0.00    -0.067 NA
ENDBRANCH   6   7
ENDBRANCH   3   6
ENDBRANCH   1   2
BRANCH   1  13
ATOM     13  C   UNL     1      34.602  35.004  13.552  1.00  0.00     0.168 C 
BRANCH  13  14
ATOM     14  O   UNL     1      34.981  33.847  12.862  1.00  0.00    -0.388 OA
ATOM     15  H   UNL     1      34.233  33.395  12.445  1.00  0.00     0.211 HD
ENDBRANCH  13  14
BRANCH  13  16
ATOM     16  C   UNL     1      33.164  35.265  13.217  1.00  0.00     0.239 C 
BRANCH  16  17
ATOM     17  N   UNL     1      32.211  34.857  14.203  1.00  0.00    -0.227 N 
ATOM     18  C   UNL     1      32.506  34.568  15.516  1.00  0.00     0.204 A 
ATOM     19  C   UNL     1      30.909  34.652  13.976  1.00  0.00     0.434 A 
ATOM     20  C   UNL     1      31.330  34.171  16.098  1.00  0.00     0.245 A 
ATOM     21  N   UNL     1      30.378  34.221  15.178  1.00  0.00    -0.074 NA
BRANCH  19  22
ATOM     22  N   UNL     1      30.112  34.826  12.808  1.00  0.00    -0.047 N 
ATOM     23  O   UNL     1      29.570  35.890  12.509  1.00  0.00    -0.390 OA
ATOM     24  O   UNL     1      29.893  33.769  11.961  1.00  0.00    -0.390 OA
ENDBRANCH  19  22
ENDBRANCH  16  17
ENDBRANCH  13  16
ENDBRANCH   1  13
TORSDOF 8
BEGIN_RES LYS A 135
REMARK  4 active torsions:
REMARK  status: ('A' for Active; 'I' for Inactive)
REMARK    1  A    between atoms: CA   and  CB  
REMARK    2  A    between atoms: CB   and  CG  
REMARK    3  A    between atoms: CG   and  CD  
REMARK    4  A    between atoms: CD   and  CE  
ROOT
ATOM      1  CA  LYS A 135      33.193  34.663   9.290  1.00 25.02     0.186 C 
ENDROOT
BRANCH   1   2
ATOM      2  CB  LYS A 135      32.060  35.360  10.034  1.00 26.63     0.034 C 
BRANCH   2   3
ATOM      3  CG  LYS A 135      30.870  35.672   9.164  1.00 29.45     0.005 C 
BRANCH   3   4
ATOM      4  CD  LYS A 135      30.335  34.406   8.512  1.00 32.00     0.041 C 
BRANCH   4   5
ATOM      5  CE  LYS A 135      28.838  34.513   8.291  1.00 34.25     0.338 C 
ATOM      6  NZ  LYS A 135      28.532  35.308   7.070  1.00 35.99     0.618 N 
ENDBRANCH   4   5
ENDBRANCH   3   4
ENDBRANCH   2   3
ENDBRANCH   1   2
END_RES LYS A 135
BEGIN_RES TYR A 136
REMARK  2 active torsions:
REMARK  status: ('A' for Active; 'I' for Inactive)
REMARK    5  A    between atoms: CA   and  CB  
REMARK    6  A    between atoms: CB   and  CG  
ROOT
ATOM      7  CA  TYR A 136      36.583  36.399   8.994  1.00 26.14     0.191 C 
ENDROOT
BRANCH   7   8
ATOM      8  CB  TYR A 136      37.367  36.835  10.240  1.00 28.16     0.060 C 
BRANCH   8   9
ATOM      9  CG  TYR A 136      36.975  38.211  10.720  1.00 31.88    -0.020 A 
ATOM     10  CD2 TYR A 136      37.686  38.851  11.737  1.00 32.67    -0.002 A 
ATOM     11  CE2 TYR A 136      37.313  40.129  12.177  1.00 33.89     0.027 A 
ATOM     12  CZ  TYR A 136      36.218  40.771  11.594  1.00 34.34     0.131 A 
ATOM     13  OH  TYR A 136      35.834  42.039  12.009  1.00 35.14    -0.190 OA
ATOM     14  CE1 TYR A 136      35.499  40.149  10.583  1.00 35.01     0.027 A 
ATOM     15  CD1 TYR A 136      35.877  38.874  10.158  1.00 33.57    -0.002 A 
ENDBRANCH   8   9
ENDBRANCH   7   8
END_RES TYR A 136
BEGIN_RES ASN A 133
REMARK  2 active torsions:
REMARK  status: ('A' for Active; 'I' for Inactive)
REMARK    7  A    between atoms: CA   and  CB  
REMARK    8  A    between atoms: CB   and  CG  
ROOT
ATOM     16  CA  ASN A 133      31.225  30.257  11.749  1.00 18.15     0.196 C 
ENDROOT
BRANCH  16  17
ATOM     17  CB  ASN A 133      30.092  31.240  11.460  1.00 18.27     0.126 C 
BRANCH  17  18
ATOM     18  CG  ASN A 133      28.756  30.578  11.318  1.00 18.94     0.276 C 
ATOM     19  OD1 ASN A 133      28.598  29.615  10.566  1.00 18.09    -0.269 OA
ATOM     20  ND2 ASN A 133      27.769  31.096  12.048  1.00 18.93    -0.107 N 
ENDBRANCH  17  18
ENDBRANCH  16  17
END_RES ASN A 133
