REMARK VINA RESULT:    -3.411      8.215     14.933
REMARK INTER + INTRA:          -7.156
REMARK INTER:                  -4.091
REMARK INTRA:                  -3.065
REMARK UNBOUND:                -3.047
REMARK SMILES Cc1cn(CCC(=O)O)nn1
REMARK SMILES IDX 6 1 5 2 4 3 1 4 2 5 3 6 11 7 10 8 7 9 8 10 9 11
REMARK H PARENT 9 12
REMARK Flexibility Score: inf
ROOT
ATOM      1  C   UNL     1      42.389  34.536  11.866  1.00  0.00     0.146 C 
ENDROOT
BRANCH   1   2
ATOM      2  C   UNL     1      41.467  33.724  12.781  1.00  0.00     0.158 C 
BRANCH   2   3
ATOM      3  N   UNL     1      40.101  34.151  12.615  1.00  0.00    -0.252 N 
ATOM      4  C   UNL     1      36.465  33.782  12.476  1.00  0.00     0.070 C 
ATOM      5  C   UNL     1      37.893  34.202  12.475  1.00  0.00     0.080 A 
ATOM      6  C   UNL     1      39.003  33.368  12.691  1.00  0.00     0.134 A 
ATOM      7  N   UNL     1      38.370  35.419  12.285  1.00  0.00    -0.136 NA
ATOM      8  N   UNL     1      39.700  35.366  12.373  1.00  0.00    -0.067 NA
ENDBRANCH   2   3
ENDBRANCH   1   2
BRANCH   1   9
ATOM      9  C   UNL     1      42.928  33.590  10.877  1.00  0.00     0.305 C 
ATOM     10  O   UNL     1      44.051  33.808  10.388  1.00  0.00    -0.252 OA
BRANCH   9  11
ATOM     11  O   UNL     1      42.204  32.479  10.489  1.00  0.00    -0.481 OA
ATOM     12  H   UNL     1      41.499  32.494   9.762  1.00  0.00     0.296 HD
ENDBRANCH   9  11
ENDBRANCH   1   9
TORSDOF 4
BEGIN_RES LYS A 135
REMARK  4 active torsions:
REMARK  status: ('A' for Active; 'I' for Inactive)
REMARK    1  A    between atoms: CA   and  CB  
REMARK    2  A    between atoms: CB   and  CG  
REMARK    3  A    between atoms: CG   and  CD  
REMARK    4  A    between atoms: CD   and  CE  
ROOT
ATOM      1  CA  LYS A 135      33.193  34.663   9.290  1.00 25.02     0.186 C 
ENDROOT
BRANCH   1   2
ATOM      2  CB  LYS A 135      32.060  35.360  10.034  1.00 26.63     0.034 C 
BRANCH   2   3
ATOM      3  CG  LYS A 135      30.699  34.791   9.728  1.00 29.45     0.005 C 
BRANCH   3   4
ATOM      4  CD  LYS A 135      30.560  34.499   8.242  1.00 32.00     0.041 C 
BRANCH   4   5
ATOM      5  CE  LYS A 135      29.224  34.996   7.724  1.00 34.25     0.338 C 
ATOM      6  NZ  LYS A 135      28.771  36.198   8.477  1.00 35.99     0.618 N 
ENDBRANCH   4   5
ENDBRANCH   3   4
ENDBRANCH   2   3
ENDBRANCH   1   2
END_RES LYS A 135
BEGIN_RES TYR A 136
REMARK  2 active torsions:
REMARK  status: ('A' for Active; 'I' for Inactive)
REMARK    5  A    between atoms: CA   and  CB  
REMARK    6  A    between atoms: CB   and  CG  
ROOT
ATOM      7  CA  TYR A 136      36.583  36.399   8.994  1.00 26.14     0.191 C 
ENDROOT
BRANCH   7   8
ATOM      8  CB  TYR A 136      37.367  36.835  10.240  1.00 28.16     0.060 C 
BRANCH   8   9
ATOM      9  CG  TYR A 136      37.219  38.308  10.533  1.00 31.88    -0.020 A 
ATOM     10  CD2 TYR A 136      37.400  38.810  11.823  1.00 32.67    -0.002 A 
ATOM     11  CE2 TYR A 136      37.258  40.180  12.085  1.00 33.89     0.027 A 
ATOM     12  CZ  TYR A 136      36.932  41.055  11.046  1.00 34.34     0.131 A 
ATOM     13  OH  TYR A 136      36.793  42.416  11.281  1.00 35.14    -0.190 OA
ATOM     14  CE1 TYR A 136      36.747  40.573   9.758  1.00 35.01     0.027 A 
ATOM     15  CD1 TYR A 136      36.884  39.206   9.511  1.00 33.57    -0.002 A 
ENDBRANCH   8   9
ENDBRANCH   7   8
END_RES TYR A 136
BEGIN_RES ASN A 133
REMARK  2 active torsions:
REMARK  status: ('A' for Active; 'I' for Inactive)
REMARK    7  A    between atoms: CA   and  CB  
REMARK    8  A    between atoms: CB   and  CG  
ROOT
ATOM     16  CA  ASN A 133      31.225  30.257  11.749  1.00 18.15     0.196 C 
ENDROOT
BRANCH  16  17
ATOM     17  CB  ASN A 133      30.092  31.240  11.460  1.00 18.27     0.126 C 
BRANCH  17  18
ATOM     18  CG  ASN A 133      28.752  30.582  11.346  1.00 18.94     0.276 C 
ATOM     19  OD1 ASN A 133      28.580  29.607  10.612  1.00 18.09    -0.269 OA
ATOM     20  ND2 ASN A 133      27.776  31.115  12.080  1.00 18.93    -0.107 N 
ENDBRANCH  17  18
ENDBRANCH  16  17
END_RES ASN A 133
