REMARK VINA RESULT:    -4.471      3.690      6.297
REMARK INTER + INTRA:          -7.898
REMARK INTER:                  -4.904
REMARK INTRA:                  -2.994
REMARK UNBOUND:                -3.166
REMARK SMILES Cc1cn(-c2cnc3ccccc3c2)nn1
REMARK SMILES IDX 5 1 6 2 7 3 8 4 9 5 10 6 11 7 12 8 13 9 14 10 4 11 1 12 2 13
REMARK SMILES IDX 3 14 16 15 15 16
REMARK H PARENT
REMARK Flexibility Score: inf
ROOT
ATOM      1  C   UNL     1      25.446  32.077  14.047  1.00  0.00     0.085 A 
ATOM      2  C   UNL     1      24.556  33.112  13.994  1.00  0.00     0.140 A 
ATOM      3  N   UNL     1      23.300  32.906  13.550  1.00  0.00    -0.254 NA
ATOM      4  C   UNL     1      22.873  31.691  13.146  1.00  0.00     0.070 A 
ATOM      5  C   UNL     1      21.589  31.472  12.692  1.00  0.00     0.029 A 
ATOM      6  C   UNL     1      21.193  30.210  12.286  1.00  0.00     0.002 A 
ATOM      7  C   UNL     1      22.087  29.139  12.333  1.00  0.00     0.001 A 
ATOM      8  C   UNL     1      23.352  29.356  12.782  1.00  0.00     0.010 A 
ATOM      9  C   UNL     1      23.737  30.615  13.182  1.00  0.00     0.002 A 
ATOM     10  C   UNL     1      25.015  30.832  13.636  1.00  0.00     0.040 A 
ENDROOT
BRANCH   1  11
ATOM     11  N   UNL     1      26.799  32.247  14.514  1.00  0.00    -0.219 N 
ATOM     12  C   UNL     1      29.872  31.179  16.202  1.00  0.00     0.070 C 
ATOM     13  C   UNL     1      28.766  31.852  15.470  1.00  0.00     0.080 A 
ATOM     14  C   UNL     1      27.508  31.328  15.194  1.00  0.00     0.140 A 
ATOM     15  N   UNL     1      28.744  33.085  14.928  1.00  0.00    -0.135 NA
ATOM     16  N   UNL     1      27.569  33.309  14.363  1.00  0.00    -0.062 NA
ENDBRANCH   1  11
TORSDOF 1
BEGIN_RES LYS A 135
REMARK  4 active torsions:
REMARK  status: ('A' for Active; 'I' for Inactive)
REMARK    1  A    between atoms: CA   and  CB  
REMARK    2  A    between atoms: CB   and  CG  
REMARK    3  A    between atoms: CG   and  CD  
REMARK    4  A    between atoms: CD   and  CE  
ROOT
ATOM      1  CA  LYS A 135      33.193  34.663   9.290  1.00 25.02     0.186 C 
ENDROOT
BRANCH   1   2
ATOM      2  CB  LYS A 135      32.060  35.360  10.034  1.00 26.63     0.034 C 
BRANCH   2   3
ATOM      3  CG  LYS A 135      30.693  34.837   9.676  1.00 29.45     0.005 C 
BRANCH   3   4
ATOM      4  CD  LYS A 135      30.627  34.472   8.201  1.00 32.00     0.041 C 
BRANCH   4   5
ATOM      5  CE  LYS A 135      29.355  35.011   7.576  1.00 34.25     0.338 C 
ATOM      6  NZ  LYS A 135      28.155  34.592   8.352  1.00 35.99     0.618 N 
ENDBRANCH   4   5
ENDBRANCH   3   4
ENDBRANCH   2   3
ENDBRANCH   1   2
END_RES LYS A 135
BEGIN_RES TYR A 136
REMARK  2 active torsions:
REMARK  status: ('A' for Active; 'I' for Inactive)
REMARK    5  A    between atoms: CA   and  CB  
REMARK    6  A    between atoms: CB   and  CG  
ROOT
ATOM      7  CA  TYR A 136      36.583  36.399   8.994  1.00 26.14     0.191 C 
ENDROOT
BRANCH   7   8
ATOM      8  CB  TYR A 136      37.367  36.835  10.240  1.00 28.16     0.060 C 
BRANCH   8   9
ATOM      9  CG  TYR A 136      37.206  38.305  10.542  1.00 31.88    -0.020 A 
ATOM     10  CD2 TYR A 136      36.464  39.138   9.702  1.00 32.67    -0.002 A 
ATOM     11  CE2 TYR A 136      36.322  40.502   9.991  1.00 33.89     0.027 A 
ATOM     12  CZ  TYR A 136      36.929  41.037  11.130  1.00 34.34     0.131 A 
ATOM     13  OH  TYR A 136      36.795  42.384  11.439  1.00 35.14    -0.190 OA
ATOM     14  CE1 TYR A 136      37.670  40.224  11.974  1.00 35.01     0.027 A 
ATOM     15  CD1 TYR A 136      37.810  38.868  11.673  1.00 33.57    -0.002 A 
ENDBRANCH   8   9
ENDBRANCH   7   8
END_RES TYR A 136
BEGIN_RES ASN A 133
REMARK  2 active torsions:
REMARK  status: ('A' for Active; 'I' for Inactive)
REMARK    7  A    between atoms: CA   and  CB  
REMARK    8  A    between atoms: CB   and  CG  
ROOT
ATOM     16  CA  ASN A 133      31.225  30.257  11.749  1.00 18.15     0.196 C 
ENDROOT
BRANCH  16  17
ATOM     17  CB  ASN A 133      30.092  31.240  11.460  1.00 18.27     0.126 C 
BRANCH  17  18
ATOM     18  CG  ASN A 133      28.805  30.568  11.094  1.00 18.94     0.276 C 
ATOM     19  OD1 ASN A 133      28.794  29.468  10.539  1.00 18.09    -0.269 OA
ATOM     20  ND2 ASN A 133      27.692  31.232  11.405  1.00 18.93    -0.107 N 
ENDBRANCH  17  18
ENDBRANCH  16  17
END_RES ASN A 133
