REMARK VINA RESULT:    -4.665      3.954      5.939
REMARK INTER + INTRA:          -7.518
REMARK INTER:                  -4.285
REMARK INTRA:                  -3.233
REMARK UNBOUND:                -2.308
REMARK SMILES COc1ccc(-n2cc(C)nn2)cc1
REMARK SMILES IDX 6 1 5 2 4 3 3 4 14 5 13 6 7 7 10 8 9 9 8 10 11 11 12 12 2 13
REMARK SMILES IDX 1 14
REMARK H PARENT
REMARK Flexibility Score: inf
ROOT
ATOM      1  C   UNL     1      30.056  31.911  16.706  1.00  0.00     0.067 A 
ATOM      2  C   UNL     1      30.345  32.753  17.761  1.00  0.00     0.032 A 
ATOM      3  C   UNL     1      31.281  33.761  17.652  1.00  0.00     0.048 A 
ATOM      4  C   UNL     1      31.977  33.978  16.481  1.00  0.00     0.119 A 
ATOM      5  C   UNL     1      31.692  33.141  15.425  1.00  0.00     0.048 A 
ATOM      6  C   UNL     1      30.755  32.134  15.537  1.00  0.00     0.032 A 
ENDROOT
BRANCH   1   7
ATOM      7  N   UNL     1      29.089  30.871  16.818  1.00  0.00    -0.220 N 
ATOM      8  C   UNL     1      26.682  28.716  18.541  1.00  0.00     0.070 C 
ATOM      9  C   UNL     1      27.603  29.458  17.606  1.00  0.00     0.080 A 
ATOM     10  C   UNL     1      28.444  30.492  17.934  1.00  0.00     0.140 A 
ATOM     11  N   UNL     1      27.749  29.223  16.291  1.00  0.00    -0.135 NA
ATOM     12  N   UNL     1      28.642  30.083  15.852  1.00  0.00    -0.062 NA
ENDBRANCH   1   7
BRANCH   4  13
ATOM     13  O   UNL     1      32.926  34.999  16.369  1.00  0.00    -0.497 OA
ATOM     14  C   UNL     1      33.497  35.357  15.126  1.00  0.00     0.278 C 
ENDBRANCH   4  13
TORSDOF 2
BEGIN_RES LYS A 135
REMARK  4 active torsions:
REMARK  status: ('A' for Active; 'I' for Inactive)
REMARK    1  A    between atoms: CA   and  CB  
REMARK    2  A    between atoms: CB   and  CG  
REMARK    3  A    between atoms: CG   and  CD  
REMARK    4  A    between atoms: CD   and  CE  
ROOT
ATOM      1  CA  LYS A 135      33.193  34.663   9.290  1.00 25.02     0.186 C 
ENDROOT
BRANCH   1   2
ATOM      2  CB  LYS A 135      32.060  35.360  10.034  1.00 26.63     0.034 C 
BRANCH   2   3
ATOM      3  CG  LYS A 135      30.734  34.655   9.910  1.00 29.45     0.005 C 
BRANCH   3   4
ATOM      4  CD  LYS A 135      30.318  34.548   8.451  1.00 32.00     0.041 C 
BRANCH   4   5
ATOM      5  CE  LYS A 135      28.806  34.510   8.330  1.00 34.25     0.338 C 
ATOM      6  NZ  LYS A 135      28.193  33.793   9.482  1.00 35.99     0.618 N 
ENDBRANCH   4   5
ENDBRANCH   3   4
ENDBRANCH   2   3
ENDBRANCH   1   2
END_RES LYS A 135
BEGIN_RES TYR A 136
REMARK  2 active torsions:
REMARK  status: ('A' for Active; 'I' for Inactive)
REMARK    5  A    between atoms: CA   and  CB  
REMARK    6  A    between atoms: CB   and  CG  
ROOT
ATOM      7  CA  TYR A 136      36.583  36.399   8.994  1.00 26.14     0.191 C 
ENDROOT
BRANCH   7   8
ATOM      8  CB  TYR A 136      37.367  36.835  10.240  1.00 28.16     0.060 C 
BRANCH   8   9
ATOM      9  CG  TYR A 136      37.197  38.302  10.548  1.00 31.88    -0.020 A 
ATOM     10  CD2 TYR A 136      36.510  39.150   9.676  1.00 32.67    -0.002 A 
ATOM     11  CE2 TYR A 136      36.360  40.512   9.971  1.00 33.89     0.027 A 
ATOM     12  CZ  TYR A 136      36.902  41.031  11.149  1.00 34.34     0.131 A 
ATOM     13  OH  TYR A 136      36.759  42.375  11.465  1.00 35.14    -0.190 OA
ATOM     14  CE1 TYR A 136      37.589  40.203  12.026  1.00 35.01     0.027 A 
ATOM     15  CD1 TYR A 136      37.738  38.850  11.719  1.00 33.57    -0.002 A 
ENDBRANCH   8   9
ENDBRANCH   7   8
END_RES TYR A 136
BEGIN_RES ASN A 133
REMARK  2 active torsions:
REMARK  status: ('A' for Active; 'I' for Inactive)
REMARK    7  A    between atoms: CA   and  CB  
REMARK    8  A    between atoms: CB   and  CG  
ROOT
ATOM     16  CA  ASN A 133      31.225  30.257  11.749  1.00 18.15     0.196 C 
ENDROOT
BRANCH  16  17
ATOM     17  CB  ASN A 133      30.092  31.240  11.460  1.00 18.27     0.126 C 
BRANCH  17  18
ATOM     18  CG  ASN A 133      28.748  30.585  11.372  1.00 18.94     0.276 C 
ATOM     19  OD1 ASN A 133      28.564  29.600  10.655  1.00 18.09    -0.269 OA
ATOM     20  ND2 ASN A 133      27.783  31.134  12.109  1.00 18.93    -0.107 N 
ENDBRANCH  17  18
ENDBRANCH  16  17
END_RES ASN A 133
