REMARK VINA RESULT:    -3.920      4.024      5.722
REMARK INTER + INTRA:          -7.315
REMARK INTER:                  -4.221
REMARK INTRA:                  -3.094
REMARK UNBOUND:                -3.166
REMARK SMILES Cc1cn(-c2cnc3ccccc3c2)nn1
REMARK SMILES IDX 5 1 6 2 7 3 8 4 9 5 10 6 11 7 12 8 13 9 14 10 4 11 1 12 2 13
REMARK SMILES IDX 3 14 16 15 15 16
REMARK H PARENT
REMARK Flexibility Score: inf
ROOT
ATOM      1  C   UNL     1      39.318  35.288  15.166  1.00  0.00     0.085 A 
ATOM      2  C   UNL     1      39.445  34.532  14.036  1.00  0.00     0.140 A 
ATOM      3  N   UNL     1      38.356  34.201  13.313  1.00  0.00    -0.254 NA
ATOM      4  C   UNL     1      37.115  34.595  13.668  1.00  0.00     0.070 A 
ATOM      5  C   UNL     1      35.996  34.262  12.933  1.00  0.00     0.029 A 
ATOM      6  C   UNL     1      34.741  34.686  13.333  1.00  0.00     0.002 A 
ATOM      7  C   UNL     1      34.589  35.460  14.485  1.00  0.00     0.001 A 
ATOM      8  C   UNL     1      35.694  35.788  15.208  1.00  0.00     0.010 A 
ATOM      9  C   UNL     1      36.938  35.361  14.803  1.00  0.00     0.002 A 
ATOM     10  C   UNL     1      38.051  35.694  15.534  1.00  0.00     0.040 A 
ENDROOT
BRANCH   1  11
ATOM     11  N   UNL     1      40.452  35.667  15.972  1.00  0.00    -0.219 N 
ATOM     12  C   UNL     1      43.114  37.932  17.074  1.00  0.00     0.070 C 
ATOM     13  C   UNL     1      42.139  36.838  16.821  1.00  0.00     0.080 A 
ATOM     14  C   UNL     1      41.106  36.839  15.890  1.00  0.00     0.140 A 
ATOM     15  N   UNL     1      42.046  35.638  17.426  1.00  0.00    -0.135 NA
ATOM     16  N   UNL     1      41.040  34.949  16.912  1.00  0.00    -0.062 NA
ENDBRANCH   1  11
TORSDOF 1
BEGIN_RES LYS A 135
REMARK  4 active torsions:
REMARK  status: ('A' for Active; 'I' for Inactive)
REMARK    1  A    between atoms: CA   and  CB  
REMARK    2  A    between atoms: CB   and  CG  
REMARK    3  A    between atoms: CG   and  CD  
REMARK    4  A    between atoms: CD   and  CE  
ROOT
ATOM      1  CA  LYS A 135      33.193  34.663   9.290  1.00 25.02     0.186 C 
ENDROOT
BRANCH   1   2
ATOM      2  CB  LYS A 135      32.060  35.360  10.034  1.00 26.63     0.034 C 
BRANCH   2   3
ATOM      3  CG  LYS A 135      30.732  34.659   9.903  1.00 29.45     0.005 C 
BRANCH   3   4
ATOM      4  CD  LYS A 135      30.355  34.493   8.440  1.00 32.00     0.041 C 
BRANCH   4   5
ATOM      5  CE  LYS A 135      28.849  34.544   8.269  1.00 34.25     0.338 C 
ATOM      6  NZ  LYS A 135      28.158  33.837   9.383  1.00 35.99     0.618 N 
ENDBRANCH   4   5
ENDBRANCH   3   4
ENDBRANCH   2   3
ENDBRANCH   1   2
END_RES LYS A 135
BEGIN_RES TYR A 136
REMARK  2 active torsions:
REMARK  status: ('A' for Active; 'I' for Inactive)
REMARK    5  A    between atoms: CA   and  CB  
REMARK    6  A    between atoms: CB   and  CG  
ROOT
ATOM      7  CA  TYR A 136      36.583  36.399   8.994  1.00 26.14     0.191 C 
ENDROOT
BRANCH   7   8
ATOM      8  CB  TYR A 136      37.367  36.835  10.240  1.00 28.16     0.060 C 
BRANCH   8   9
ATOM      9  CG  TYR A 136      36.754  38.034  10.921  1.00 31.88    -0.020 A 
ATOM     10  CD2 TYR A 136      36.575  39.240  10.239  1.00 32.67    -0.002 A 
ATOM     11  CE2 TYR A 136      36.006  40.348  10.882  1.00 33.89     0.027 A 
ATOM     12  CZ  TYR A 136      35.613  40.249  12.219  1.00 34.34     0.131 A 
ATOM     13  OH  TYR A 136      35.041  41.331  12.873  1.00 35.14    -0.190 OA
ATOM     14  CE1 TYR A 136      35.785  39.059  12.912  1.00 35.01     0.027 A 
ATOM     15  CD1 TYR A 136      36.359  37.964  12.263  1.00 33.57    -0.002 A 
ENDBRANCH   8   9
ENDBRANCH   7   8
END_RES TYR A 136
BEGIN_RES ASN A 133
REMARK  2 active torsions:
REMARK  status: ('A' for Active; 'I' for Inactive)
REMARK    7  A    between atoms: CA   and  CB  
REMARK    8  A    between atoms: CB   and  CG  
ROOT
ATOM     16  CA  ASN A 133      31.225  30.257  11.749  1.00 18.15     0.196 C 
ENDROOT
BRANCH  16  17
ATOM     17  CB  ASN A 133      30.092  31.240  11.460  1.00 18.27     0.126 C 
BRANCH  17  18
ATOM     18  CG  ASN A 133      28.757  30.578  11.317  1.00 18.94     0.276 C 
ATOM     19  OD1 ASN A 133      28.601  29.610  10.570  1.00 18.09    -0.269 OA
ATOM     20  ND2 ASN A 133      27.767  31.101  12.039  1.00 18.93    -0.107 N 
ENDBRANCH  17  18
ENDBRANCH  16  17
END_RES ASN A 133
