REMARK VINA RESULT:    -2.465      6.397      7.461
REMARK INTER + INTRA:          -5.780
REMARK INTER:                  -2.609
REMARK INTRA:                  -3.171
REMARK UNBOUND:                -3.171
REMARK SMILES Cc1cn(C2CCCC2)nn1
REMARK SMILES IDX 5 1 6 2 7 3 8 4 9 5 4 6 1 7 2 8 3 9 11 10 10 11
REMARK H PARENT
REMARK Flexibility Score: inf
ROOT
ATOM      1  C   UNL     1      30.196  28.313  20.732  1.00  0.00     0.109 C 
ATOM      2  C   UNL     1      29.869  28.235  22.223  1.00  0.00     0.027 C 
ATOM      3  C   UNL     1      30.559  26.934  22.593  1.00  0.00     0.002 C 
ATOM      4  C   UNL     1      31.737  26.800  21.649  1.00  0.00     0.002 C 
ATOM      5  C   UNL     1      31.660  28.019  20.723  1.00  0.00     0.027 C 
ENDROOT
BRANCH   1   6
ATOM      6  N   UNL     1      29.878  29.631  20.200  1.00  0.00    -0.249 N 
ATOM      7  C   UNL     1      30.782  32.969  18.944  1.00  0.00     0.070 C 
ATOM      8  C   UNL     1      30.151  31.683  19.412  1.00  0.00     0.080 A 
ATOM      9  C   UNL     1      30.793  30.562  19.885  1.00  0.00     0.134 A 
ATOM     10  N   UNL     1      28.847  31.372  19.465  1.00  0.00    -0.136 NA
ATOM     11  N   UNL     1      28.702  30.152  19.933  1.00  0.00    -0.067 NA
ENDBRANCH   1   6
TORSDOF 1
BEGIN_RES LYS A 135
REMARK  4 active torsions:
REMARK  status: ('A' for Active; 'I' for Inactive)
REMARK    1  A    between atoms: CA   and  CB  
REMARK    2  A    between atoms: CB   and  CG  
REMARK    3  A    between atoms: CG   and  CD  
REMARK    4  A    between atoms: CD   and  CE  
ROOT
ATOM      1  CA  LYS A 135      33.193  34.663   9.290  1.00 25.02     0.186 C 
ENDROOT
BRANCH   1   2
ATOM      2  CB  LYS A 135      32.060  35.360  10.034  1.00 26.63     0.034 C 
BRANCH   2   3
ATOM      3  CG  LYS A 135      30.712  34.725   9.810  1.00 29.45     0.005 C 
BRANCH   3   4
ATOM      4  CD  LYS A 135      30.470  34.487   8.328  1.00 32.00     0.041 C 
BRANCH   4   5
ATOM      5  CE  LYS A 135      29.031  34.801   7.966  1.00 34.25     0.338 C 
ATOM      6  NZ  LYS A 135      28.953  35.570   6.693  1.00 35.99     0.618 N 
ENDBRANCH   4   5
ENDBRANCH   3   4
ENDBRANCH   2   3
ENDBRANCH   1   2
END_RES LYS A 135
BEGIN_RES TYR A 136
REMARK  2 active torsions:
REMARK  status: ('A' for Active; 'I' for Inactive)
REMARK    5  A    between atoms: CA   and  CB  
REMARK    6  A    between atoms: CB   and  CG  
ROOT
ATOM      7  CA  TYR A 136      36.583  36.399   8.994  1.00 26.14     0.191 C 
ENDROOT
BRANCH   7   8
ATOM      8  CB  TYR A 136      37.367  36.835  10.240  1.00 28.16     0.060 C 
BRANCH   8   9
ATOM      9  CG  TYR A 136      37.234  38.311  10.522  1.00 31.88    -0.020 A 
ATOM     10  CD2 TYR A 136      36.422  39.128   9.732  1.00 32.67    -0.002 A 
ATOM     11  CE2 TYR A 136      36.307  40.499  10.001  1.00 33.89     0.027 A 
ATOM     12  CZ  TYR A 136      37.011  41.057  11.071  1.00 34.34     0.131 A 
ATOM     13  OH  TYR A 136      36.907  42.411  11.360  1.00 35.14    -0.190 OA
ATOM     14  CE1 TYR A 136      37.824  40.261  11.865  1.00 35.01     0.027 A 
ATOM     15  CD1 TYR A 136      37.935  38.898  11.583  1.00 33.57    -0.002 A 
ENDBRANCH   8   9
ENDBRANCH   7   8
END_RES TYR A 136
BEGIN_RES ASN A 133
REMARK  2 active torsions:
REMARK  status: ('A' for Active; 'I' for Inactive)
REMARK    7  A    between atoms: CA   and  CB  
REMARK    8  A    between atoms: CB   and  CG  
ROOT
ATOM     16  CA  ASN A 133      31.225  30.257  11.749  1.00 18.15     0.196 C 
ENDROOT
BRANCH  16  17
ATOM     17  CB  ASN A 133      30.092  31.240  11.460  1.00 18.27     0.126 C 
BRANCH  17  18
ATOM     18  CG  ASN A 133      28.749  30.584  11.364  1.00 18.94     0.276 C 
ATOM     19  OD1 ASN A 133      28.566  29.610  10.632  1.00 18.09    -0.269 OA
ATOM     20  ND2 ASN A 133      27.785  31.119  12.112  1.00 18.93    -0.107 N 
ENDBRANCH  17  18
ENDBRANCH  16  17
END_RES ASN A 133
