REMARK VINA RESULT:    -5.503      6.832     10.240
REMARK INTER + INTRA:         -10.407
REMARK INTER:                  -6.741
REMARK INTRA:                  -3.666
REMARK UNBOUND:                -3.778
REMARK SMILES Cc1cn(-c2ccc(-c3c4ccc(=O)cc-4oc4cc(O)ccc34)c(C(=O)[O-])c2)nn1
REMARK SMILES IDX 9 1 24 2 23 3 22 4 20 5 19 6 18 7 17 8 16 9 15 10 13 11
REMARK SMILES IDX 14 12 12 13 11 14 10 15 8 16 5 17 29 18 6 19 25 20 7 21 4 22
REMARK SMILES IDX 1 23 2 24 3 25 31 26 30 27 26 28 27 29 28 30 21 31
REMARK H PARENT 21 32
REMARK Flexibility Score: inf
ROOT
ATOM      1  C   UNL     1      37.333  38.914   3.137  1.00  0.00     0.004 A 
ATOM      2  C   UNL     1      36.205  39.069   3.913  1.00  0.00     0.026 A 
ATOM      3  C   UNL     1      36.209  38.639   5.223  1.00  0.00     0.016 A 
ATOM      4  C   UNL     1      35.097  38.774   6.039  1.00  0.00     0.047 A 
ATOM      5  C   UNL     1      33.970  39.359   5.505  1.00  0.00     0.119 A 
ATOM      6  C   UNL     1      33.964  39.790   4.194  1.00  0.00     0.093 A 
ATOM      7  C   UNL     1      35.076  39.660   3.362  1.00  0.00     0.139 A 
ATOM      8  O   UNL     1      35.036  40.081   2.119  1.00  0.00    -0.456 OA
ATOM      9  C   UNL     1      36.044  39.980   1.312  1.00  0.00     0.139 A 
ATOM     10  C   UNL     1      36.038  40.410   0.006  1.00  0.00     0.099 A 
ATOM     11  C   UNL     1      37.174  40.246  -0.751  1.00  0.00     0.182 A 
ATOM     12  O   UNL     1      37.160  40.641  -1.943  1.00  0.00    -0.290 OA
ATOM     13  C   UNL     1      38.325  39.664  -0.250  1.00  0.00     0.053 A 
ATOM     14  C   UNL     1      38.401  39.211   1.048  1.00  0.00     0.016 A 
ATOM     15  C   UNL     1      37.271  39.363   1.835  1.00  0.00     0.026 A 
ENDROOT
BRANCH   1  16
ATOM     16  C   UNL     1      38.505  38.297   3.720  1.00  0.00    -0.008 A 
ATOM     17  C   UNL     1      40.792  37.174   4.868  1.00  0.00     0.067 A 
ATOM     18  C   UNL     1      40.592  38.537   4.925  1.00  0.00     0.039 A 
ATOM     19  C   UNL     1      39.858  36.362   4.241  1.00  0.00     0.029 A 
ATOM     20  C   UNL     1      39.454  39.075   4.351  1.00  0.00     0.007 A 
ATOM     21  C   UNL     1      38.730  36.933   3.676  1.00  0.00     0.012 A 
BRANCH  17  22
ATOM     22  N   UNL     1      41.943  36.566   5.440  1.00  0.00    -0.220 N 
ATOM     23  C   UNL     1      44.395  33.832   5.701  1.00  0.00     0.070 C 
ATOM     24  C   UNL     1      43.554  35.061   5.805  1.00  0.00     0.080 A 
ATOM     25  C   UNL     1      42.437  35.354   5.051  1.00  0.00     0.140 A 
ATOM     26  N   UNL     1      43.705  36.111   6.633  1.00  0.00    -0.135 NA
ATOM     27  N   UNL     1      42.731  36.986   6.389  1.00  0.00    -0.062 NA
ENDBRANCH  17  22
BRANCH  20  28
ATOM     28  C   UNL     1      39.255  40.518   4.419  1.00  0.00     0.072 C 
ATOM     29  O   UNL     1      39.688  41.287   3.530  1.00  0.00    -0.545 OA
ATOM     30  O   UNL     1      38.572  41.095   5.480  1.00  0.00    -0.545 OA
ENDBRANCH  20  28
ENDBRANCH   1  16
BRANCH   5  31
ATOM     31  O   UNL     1      32.838  39.502   6.324  1.00  0.00    -0.508 OA
ATOM     32  H   UNL     1      32.884  39.237   7.298  1.00  0.00     0.293 HD
ENDBRANCH   5  31
TORSDOF 4
BEGIN_RES LYS A 135
REMARK  4 active torsions:
REMARK  status: ('A' for Active; 'I' for Inactive)
REMARK    1  A    between atoms: CA   and  CB  
REMARK    2  A    between atoms: CB   and  CG  
REMARK    3  A    between atoms: CG   and  CD  
REMARK    4  A    between atoms: CD   and  CE  
ROOT
ATOM      1  CA  LYS A 135      33.193  34.663   9.290  1.00 25.02     0.186 C 
ENDROOT
BRANCH   1   2
ATOM      2  CB  LYS A 135      32.060  35.360  10.034  1.00 26.63     0.034 C 
BRANCH   2   3
ATOM      3  CG  LYS A 135      30.705  34.754   9.773  1.00 29.45     0.005 C 
BRANCH   3   4
ATOM      4  CD  LYS A 135      30.539  34.426   8.297  1.00 32.00     0.041 C 
BRANCH   4   5
ATOM      5  CE  LYS A 135      29.162  34.836   7.812  1.00 34.25     0.338 C 
ATOM      6  NZ  LYS A 135      29.068  36.314   7.652  1.00 35.99     0.618 N 
ENDBRANCH   4   5
ENDBRANCH   3   4
ENDBRANCH   2   3
ENDBRANCH   1   2
END_RES LYS A 135
BEGIN_RES TYR A 136
REMARK  2 active torsions:
REMARK  status: ('A' for Active; 'I' for Inactive)
REMARK    5  A    between atoms: CA   and  CB  
REMARK    6  A    between atoms: CB   and  CG  
ROOT
ATOM      7  CA  TYR A 136      36.583  36.399   8.994  1.00 26.14     0.191 C 
ENDROOT
BRANCH   7   8
ATOM      8  CB  TYR A 136      37.367  36.835  10.240  1.00 28.16     0.060 C 
BRANCH   8   9
ATOM      9  CG  TYR A 136      37.463  38.335  10.370  1.00 31.88    -0.020 A 
ATOM     10  CD2 TYR A 136      36.715  39.181   9.547  1.00 32.67    -0.002 A 
ATOM     11  CE2 TYR A 136      36.813  40.574   9.675  1.00 33.89     0.027 A 
ATOM     12  CZ  TYR A 136      37.667  41.125  10.634  1.00 34.34     0.131 A 
ATOM     13  OH  TYR A 136      37.774  42.500  10.782  1.00 35.14    -0.190 OA
ATOM     14  CE1 TYR A 136      38.418  40.299  11.458  1.00 35.01     0.027 A 
ATOM     15  CD1 TYR A 136      38.317  38.914  11.317  1.00 33.57    -0.002 A 
ENDBRANCH   8   9
ENDBRANCH   7   8
END_RES TYR A 136
BEGIN_RES ASN A 133
REMARK  2 active torsions:
REMARK  status: ('A' for Active; 'I' for Inactive)
REMARK    7  A    between atoms: CA   and  CB  
REMARK    8  A    between atoms: CB   and  CG  
ROOT
ATOM     16  CA  ASN A 133      31.225  30.257  11.749  1.00 18.15     0.196 C 
ENDROOT
BRANCH  16  17
ATOM     17  CB  ASN A 133      30.092  31.240  11.460  1.00 18.27     0.126 C 
BRANCH  17  18
ATOM     18  CG  ASN A 133      28.749  30.585  11.370  1.00 18.94     0.276 C 
ATOM     19  OD1 ASN A 133      28.565  29.601  10.650  1.00 18.09    -0.269 OA
ATOM     20  ND2 ASN A 133      27.783  31.131  12.108  1.00 18.93    -0.107 N 
ENDBRANCH  17  18
ENDBRANCH  16  17
END_RES ASN A 133
