REMARK VINA RESULT:    -3.534      3.340      4.765
REMARK INTER + INTRA:          -7.186
REMARK INTER:                  -4.449
REMARK INTRA:                  -2.737
REMARK UNBOUND:                -3.239
REMARK SMILES Cc1cn(Cc2ccc(Br)cc2)nn1
REMARK SMILES IDX 5 1 4 2 1 3 2 4 3 5 14 6 13 7 6 8 7 9 12 10 8 11 11 12 9 13
REMARK SMILES IDX 10 14
REMARK H PARENT
REMARK Flexibility Score: inf
ROOT
ATOM      1  C   UNL     1      38.420  35.379  15.846  1.00  0.00     0.181 C 
ENDROOT
BRANCH   1   2
ATOM      2  N   UNL     1      38.368  34.498  17.019  1.00  0.00    -0.248 N 
ATOM      3  C   UNL     1      37.725  33.589  20.530  1.00  0.00     0.070 C 
ATOM      4  C   UNL     1      38.070  33.693  19.069  1.00  0.00     0.080 A 
ATOM      5  C   UNL     1      37.961  34.812  18.263  1.00  0.00     0.134 A 
ATOM      6  N   UNL     1      38.548  32.728  18.266  1.00  0.00    -0.136 NA
ATOM      7  N   UNL     1      38.714  33.233  17.060  1.00  0.00    -0.067 NA
ENDBRANCH   1   2
BRANCH   1   8
ATOM      8  C   UNL     1      37.095  35.399  15.189  1.00  0.00    -0.026 A 
ATOM      9  C   UNL     1      36.885  34.625  14.075  1.00  0.00     0.007 A 
ATOM     10  C   UNL     1      36.071  36.180  15.672  1.00  0.00     0.007 A 
ATOM     11  C   UNL     1      35.643  34.662  13.484  1.00  0.00     0.016 A 
ATOM     12  C   UNL     1      34.820  36.199  15.051  1.00  0.00     0.016 A 
ATOM     13  C   UNL     1      34.592  35.429  13.934  1.00  0.00     0.017 A 
ATOM     14  Br  UNL     1      32.879  35.482  13.119  1.00  0.00    -0.051 Br
ENDBRANCH   1   8
TORSDOF 2
BEGIN_RES LYS A 135
REMARK  4 active torsions:
REMARK  status: ('A' for Active; 'I' for Inactive)
REMARK    1  A    between atoms: CA   and  CB  
REMARK    2  A    between atoms: CB   and  CG  
REMARK    3  A    between atoms: CG   and  CD  
REMARK    4  A    between atoms: CD   and  CE  
ROOT
ATOM      1  CA  LYS A 135      33.193  34.663   9.290  1.00 25.02     0.186 C 
ENDROOT
BRANCH   1   2
ATOM      2  CB  LYS A 135      32.060  35.360  10.034  1.00 26.63     0.034 C 
BRANCH   2   3
ATOM      3  CG  LYS A 135      30.706  34.751   9.776  1.00 29.45     0.005 C 
BRANCH   3   4
ATOM      4  CD  LYS A 135      30.469  34.581   8.284  1.00 32.00     0.041 C 
BRANCH   4   5
ATOM      5  CE  LYS A 135      29.015  34.841   7.941  1.00 34.25     0.338 C 
ATOM      6  NZ  LYS A 135      28.890  35.573   6.651  1.00 35.99     0.618 N 
ENDBRANCH   4   5
ENDBRANCH   3   4
ENDBRANCH   2   3
ENDBRANCH   1   2
END_RES LYS A 135
BEGIN_RES TYR A 136
REMARK  2 active torsions:
REMARK  status: ('A' for Active; 'I' for Inactive)
REMARK    5  A    between atoms: CA   and  CB  
REMARK    6  A    between atoms: CB   and  CG  
ROOT
ATOM      7  CA  TYR A 136      36.583  36.399   8.994  1.00 26.14     0.191 C 
ENDROOT
BRANCH   7   8
ATOM      8  CB  TYR A 136      37.367  36.835  10.240  1.00 28.16     0.060 C 
BRANCH   8   9
ATOM      9  CG  TYR A 136      36.705  37.976  10.972  1.00 31.88    -0.020 A 
ATOM     10  CD2 TYR A 136      36.036  38.988  10.281  1.00 32.67    -0.002 A 
ATOM     11  CE2 TYR A 136      35.426  40.045  10.970  1.00 33.89     0.027 A 
ATOM     12  CZ  TYR A 136      35.485  40.089  12.365  1.00 34.34     0.131 A 
ATOM     13  OH  TYR A 136      34.882  41.121  13.070  1.00 35.14    -0.190 OA
ATOM     14  CE1 TYR A 136      36.146  39.092  13.069  1.00 35.01     0.027 A 
ATOM     15  CD1 TYR A 136      36.755  38.048  12.370  1.00 33.57    -0.002 A 
ENDBRANCH   8   9
ENDBRANCH   7   8
END_RES TYR A 136
BEGIN_RES ASN A 133
REMARK  2 active torsions:
REMARK  status: ('A' for Active; 'I' for Inactive)
REMARK    7  A    between atoms: CA   and  CB  
REMARK    8  A    between atoms: CB   and  CG  
ROOT
ATOM     16  CA  ASN A 133      31.225  30.257  11.749  1.00 18.15     0.196 C 
ENDROOT
BRANCH  16  17
ATOM     17  CB  ASN A 133      30.092  31.240  11.460  1.00 18.27     0.126 C 
BRANCH  17  18
ATOM     18  CG  ASN A 133      28.741  30.595  11.438  1.00 18.94     0.276 C 
ATOM     19  OD1 ASN A 133      27.851  30.952  12.213  1.00 18.09    -0.269 OA
ATOM     20  ND2 ASN A 133      28.572  29.625  10.541  1.00 18.93    -0.107 N 
ENDBRANCH  17  18
ENDBRANCH  16  17
END_RES ASN A 133
