REMARK VINA RESULT:    -5.794      2.160      3.460
REMARK INTER + INTRA:          -7.446
REMARK INTER:                  -4.514
REMARK INTRA:                  -2.932
REMARK UNBOUND:                -1.313
REMARK SMILES Cc1cn(-c2ccccc2I)nn1
REMARK SMILES IDX 5 1 6 2 7 3 8 4 9 5 10 6 11 7 4 8 1 9 2 10 3 11 13 12 12 13
REMARK H PARENT
REMARK Flexibility Score: inf
ROOT
ATOM      1  C   UNL     1      32.005  33.969  15.465  1.00  0.00     0.080 A 
ATOM      2  C   UNL     1      31.435  32.751  15.163  1.00  0.00     0.029 A 
ATOM      3  C   UNL     1      30.808  31.970  16.123  1.00  0.00     0.002 A 
ATOM      4  C   UNL     1      30.743  32.414  17.440  1.00  0.00     0.001 A 
ATOM      5  C   UNL     1      31.309  33.632  17.762  1.00  0.00     0.017 A 
ATOM      6  C   UNL     1      31.926  34.388  16.789  1.00  0.00     0.039 A 
ATOM      7  I   UNL     1      32.780  36.244  17.315  1.00  0.00    -0.042 I 
ENDROOT
BRANCH   1   8
ATOM      8  N   UNL     1      32.648  34.761  14.462  1.00  0.00    -0.219 N 
ATOM      9  C   UNL     1      33.073  37.246  11.849  1.00  0.00     0.070 C 
ATOM     10  C   UNL     1      33.153  36.173  12.889  1.00  0.00     0.080 A 
ATOM     11  C   UNL     1      32.136  35.713  13.688  1.00  0.00     0.140 A 
ATOM     12  N   UNL     1      34.249  35.469  13.220  1.00  0.00    -0.135 NA
ATOM     13  N   UNL     1      33.930  34.628  14.162  1.00  0.00    -0.062 NA
ENDBRANCH   1   8
TORSDOF 1
BEGIN_RES LYS A 135
REMARK  4 active torsions:
REMARK  status: ('A' for Active; 'I' for Inactive)
REMARK    1  A    between atoms: CA   and  CB  
REMARK    2  A    between atoms: CB   and  CG  
REMARK    3  A    between atoms: CG   and  CD  
REMARK    4  A    between atoms: CD   and  CE  
ROOT
ATOM      1  CA  LYS A 135      33.193  34.663   9.290  1.00 25.02     0.186 C 
ENDROOT
BRANCH   1   2
ATOM      2  CB  LYS A 135      32.060  35.360  10.034  1.00 26.63     0.034 C 
BRANCH   2   3
ATOM      3  CG  LYS A 135      30.784  35.453   9.238  1.00 29.45     0.005 C 
BRANCH   3   4
ATOM      4  CD  LYS A 135      30.215  34.068   8.972  1.00 32.00     0.041 C 
BRANCH   4   5
ATOM      5  CE  LYS A 135      28.740  34.022   9.323  1.00 34.25     0.338 C 
ATOM      6  NZ  LYS A 135      27.917  34.675   8.268  1.00 35.99     0.618 N 
ENDBRANCH   4   5
ENDBRANCH   3   4
ENDBRANCH   2   3
ENDBRANCH   1   2
END_RES LYS A 135
BEGIN_RES TYR A 136
REMARK  2 active torsions:
REMARK  status: ('A' for Active; 'I' for Inactive)
REMARK    5  A    between atoms: CA   and  CB  
REMARK    6  A    between atoms: CB   and  CG  
ROOT
ATOM      7  CA  TYR A 136      36.583  36.399   8.994  1.00 26.14     0.191 C 
ENDROOT
BRANCH   7   8
ATOM      8  CB  TYR A 136      37.367  36.835  10.240  1.00 28.16     0.060 C 
BRANCH   8   9
ATOM      9  CG  TYR A 136      36.730  38.006  10.946  1.00 31.88    -0.020 A 
ATOM     10  CD2 TYR A 136      36.727  38.096  12.340  1.00 32.67    -0.002 A 
ATOM     11  CE2 TYR A 136      36.131  39.188  12.986  1.00 33.89     0.027 A 
ATOM     12  CZ  TYR A 136      35.531  40.198  12.231  1.00 34.34     0.131 A 
ATOM     13  OH  TYR A 136      34.941  41.292  12.849  1.00 35.14    -0.190 OA
ATOM     14  CE1 TYR A 136      35.523  40.124  10.845  1.00 35.01     0.027 A 
ATOM     15  CD1 TYR A 136      36.115  39.029  10.213  1.00 33.57    -0.002 A 
ENDBRANCH   8   9
ENDBRANCH   7   8
END_RES TYR A 136
BEGIN_RES ASN A 133
REMARK  2 active torsions:
REMARK  status: ('A' for Active; 'I' for Inactive)
REMARK    7  A    between atoms: CA   and  CB  
REMARK    8  A    between atoms: CB   and  CG  
ROOT
ATOM     16  CA  ASN A 133      31.225  30.257  11.749  1.00 18.15     0.196 C 
ENDROOT
BRANCH  16  17
ATOM     17  CB  ASN A 133      30.092  31.240  11.460  1.00 18.27     0.126 C 
BRANCH  17  18
ATOM     18  CG  ASN A 133      28.757  30.578  11.313  1.00 18.94     0.276 C 
ATOM     19  OD1 ASN A 133      28.605  29.606  10.570  1.00 18.09    -0.269 OA
ATOM     20  ND2 ASN A 133      27.763  31.105  12.027  1.00 18.93    -0.107 N 
ENDBRANCH  17  18
ENDBRANCH  16  17
END_RES ASN A 133
