REMARK VINA RESULT:    -4.055      5.369      8.205
REMARK INTER + INTRA:          -7.575
REMARK INTER:                  -4.273
REMARK INTRA:                  -3.302
REMARK UNBOUND:                -3.283
REMARK SMILES Cc1cn(C23CC4CC(CC(C4)C2)C3)nn1
REMARK SMILES IDX 5 1 14 2 9 3 8 4 7 5 12 6 11 7 10 8 13 9 6 10 4 11 1 12 2 13
REMARK SMILES IDX 3 14 16 15 15 16
REMARK H PARENT
REMARK Flexibility Score: inf
ROOT
ATOM      1  C   UNL     1      35.425  39.362   4.444  1.00  0.00     0.065 C 
ATOM      2  C   UNL     1      36.044  38.046   4.901  1.00  0.00     0.034 C 
ATOM      3  C   UNL     1      37.242  37.744   4.008  1.00  0.00    -0.008 C 
ATOM      4  C   UNL     1      38.210  38.882   4.176  1.00  0.00     0.007 C 
ATOM      5  C   UNL     1      37.588  40.144   3.645  1.00  0.00    -0.008 C 
ATOM      6  C   UNL     1      37.123  40.014   2.231  1.00  0.00     0.007 C 
ATOM      7  C   UNL     1      36.093  38.914   2.137  1.00  0.00    -0.008 C 
ATOM      8  C   UNL     1      36.782  37.623   2.584  1.00  0.00     0.007 C 
ATOM      9  C   UNL     1      34.924  39.131   3.037  1.00  0.00     0.034 C 
ATOM     10  C   UNL     1      36.415  40.494   4.530  1.00  0.00     0.034 C 
ENDROOT
BRANCH   1  11
ATOM     11  N   UNL     1      34.259  39.597   5.283  1.00  0.00    -0.246 N 
ATOM     12  C   UNL     1      32.740  39.932   8.557  1.00  0.00     0.070 C 
ATOM     13  C   UNL     1      33.082  39.848   7.125  1.00  0.00     0.080 A 
ATOM     14  C   UNL     1      34.335  39.600   6.627  1.00  0.00     0.134 A 
ATOM     15  N   UNL     1      32.282  39.985   6.037  1.00  0.00    -0.136 NA
ATOM     16  N   UNL     1      33.018  39.829   4.947  1.00  0.00    -0.067 NA
ENDBRANCH   1  11
TORSDOF 1
BEGIN_RES LYS A 135
REMARK  4 active torsions:
REMARK  status: ('A' for Active; 'I' for Inactive)
REMARK    1  A    between atoms: CA   and  CB  
REMARK    2  A    between atoms: CB   and  CG  
REMARK    3  A    between atoms: CG   and  CD  
REMARK    4  A    between atoms: CD   and  CE  
ROOT
ATOM      1  CA  LYS A 135      33.193  34.663   9.290  1.00 25.02     0.186 C 
ENDROOT
BRANCH   1   2
ATOM      2  CB  LYS A 135      32.060  35.360  10.034  1.00 26.63     0.034 C 
BRANCH   2   3
ATOM      3  CG  LYS A 135      30.709  34.737   9.795  1.00 29.45     0.005 C 
BRANCH   3   4
ATOM      4  CD  LYS A 135      30.476  34.513   8.309  1.00 32.00     0.041 C 
BRANCH   4   5
ATOM      5  CE  LYS A 135      29.028  34.786   7.950  1.00 34.25     0.338 C 
ATOM      6  NZ  LYS A 135      28.927  35.559   6.681  1.00 35.99     0.618 N 
ENDBRANCH   4   5
ENDBRANCH   3   4
ENDBRANCH   2   3
ENDBRANCH   1   2
END_RES LYS A 135
BEGIN_RES TYR A 136
REMARK  2 active torsions:
REMARK  status: ('A' for Active; 'I' for Inactive)
REMARK    5  A    between atoms: CA   and  CB  
REMARK    6  A    between atoms: CB   and  CG  
ROOT
ATOM      7  CA  TYR A 136      36.583  36.399   8.994  1.00 26.14     0.191 C 
ENDROOT
BRANCH   7   8
ATOM      8  CB  TYR A 136      37.367  36.835  10.240  1.00 28.16     0.060 C 
BRANCH   8   9
ATOM      9  CG  TYR A 136      37.228  38.310  10.526  1.00 31.88    -0.020 A 
ATOM     10  CD2 TYR A 136      36.287  39.092   9.853  1.00 32.67    -0.002 A 
ATOM     11  CE2 TYR A 136      36.168  40.462  10.124  1.00 33.89     0.027 A 
ATOM     12  CZ  TYR A 136      36.998  41.055  11.079  1.00 34.34     0.131 A 
ATOM     13  OH  TYR A 136      36.893  42.408  11.369  1.00 35.14    -0.190 OA
ATOM     14  CE1 TYR A 136      37.939  40.293  11.756  1.00 35.01     0.027 A 
ATOM     15  CD1 TYR A 136      38.053  38.931  11.472  1.00 33.57    -0.002 A 
ENDBRANCH   8   9
ENDBRANCH   7   8
END_RES TYR A 136
BEGIN_RES ASN A 133
REMARK  2 active torsions:
REMARK  status: ('A' for Active; 'I' for Inactive)
REMARK    7  A    between atoms: CA   and  CB  
REMARK    8  A    between atoms: CB   and  CG  
ROOT
ATOM     16  CA  ASN A 133      31.225  30.257  11.749  1.00 18.15     0.196 C 
ENDROOT
BRANCH  16  17
ATOM     17  CB  ASN A 133      30.092  31.240  11.460  1.00 18.27     0.126 C 
BRANCH  17  18
ATOM     18  CG  ASN A 133      28.755  30.579  11.327  1.00 18.94     0.276 C 
ATOM     19  OD1 ASN A 133      28.590  29.618  10.575  1.00 18.09    -0.269 OA
ATOM     20  ND2 ASN A 133      27.774  31.096  12.066  1.00 18.93    -0.107 N 
ENDBRANCH  17  18
ENDBRANCH  16  17
END_RES ASN A 133
