REMARK VINA RESULT:    -4.724      1.272      1.527
REMARK INTER + INTRA:          -9.731
REMARK INTER:                  -6.096
REMARK INTRA:                  -3.635
REMARK UNBOUND:                -3.626
REMARK SMILES Cc1cn(CCNC(=O)NCc2ccco2)nn1
REMARK SMILES IDX 7 1 8 2 9 3 10 4 6 7 5 8 4 9 1 10 2 11 3 12 18 13 17 14
REMARK SMILES IDX 11 15 12 16 13 17 16 18 14 19 15 20
REMARK H PARENT 7 5 10 6
REMARK Flexibility Score: inf
ROOT
ATOM      1  N   UNL     1      32.030  35.040  12.540  1.00  0.00    -0.336 N 
ATOM      2  C   UNL     1      33.262  35.401  13.152  1.00  0.00     0.315 C 
ATOM      3  O   UNL     1      33.258  35.663  14.364  1.00  0.00    -0.249 OA
ATOM      4  N   UNL     1      34.479  35.464  12.396  1.00  0.00    -0.331 N 
ATOM      5  H   UNL     1      32.055  34.824  11.522  1.00  0.00     0.165 HD
ATOM      6  H   UNL     1      34.420  35.233  11.382  1.00  0.00     0.165 HD
ENDROOT
BRANCH   1   7
ATOM      7  C   UNL     1      30.799  34.966  13.260  1.00  0.00     0.141 C 
BRANCH   7   8
ATOM      8  C   UNL     1      30.070  33.657  13.099  1.00  0.00     0.167 C 
BRANCH   8   9
ATOM      9  N   UNL     1      30.192  32.940  14.352  1.00  0.00    -0.251 N 
ATOM     10  C   UNL     1      29.174  30.964  17.213  1.00  0.00     0.070 C 
ATOM     11  C   UNL     1      29.836  31.760  16.170  1.00  0.00     0.080 A 
ATOM     12  C   UNL     1      29.244  32.280  15.042  1.00  0.00     0.134 A 
ATOM     13  N   UNL     1      31.126  32.111  16.144  1.00  0.00    -0.136 NA
ATOM     14  N   UNL     1      31.309  32.815  15.046  1.00  0.00    -0.067 NA
ENDBRANCH   8   9
ENDBRANCH   7   8
ENDBRANCH   1   7
BRANCH   4  15
ATOM     15  C   UNL     1      35.702  35.835  13.059  1.00  0.00     0.193 C 
BRANCH  15  16
ATOM     16  C   UNL     1      36.735  34.783  12.900  1.00  0.00     0.122 A 
ATOM     17  C   UNL     1      38.073  34.873  13.208  1.00  0.00     0.047 A 
ATOM     18  O   UNL     1      36.533  33.556  12.427  1.00  0.00    -0.467 OA
ATOM     19  C   UNL     1      38.668  33.642  12.896  1.00  0.00     0.042 A 
ATOM     20  C   UNL     1      37.634  32.880  12.415  1.00  0.00     0.195 A 
ENDBRANCH  15  16
ENDBRANCH   4  15
TORSDOF 5
BEGIN_RES LYS A 135
REMARK  4 active torsions:
REMARK  status: ('A' for Active; 'I' for Inactive)
REMARK    1  A    between atoms: CA   and  CB  
REMARK    2  A    between atoms: CB   and  CG  
REMARK    3  A    between atoms: CG   and  CD  
REMARK    4  A    between atoms: CD   and  CE  
ROOT
ATOM      1  CA  LYS A 135      33.193  34.663   9.290  1.00 25.02     0.186 C 
ENDROOT
BRANCH   1   2
ATOM      2  CB  LYS A 135      32.060  35.360  10.034  1.00 26.63     0.034 C 
BRANCH   2   3
ATOM      3  CG  LYS A 135      30.803  35.508   9.216  1.00 29.45     0.005 C 
BRANCH   3   4
ATOM      4  CD  LYS A 135      30.057  34.186   9.134  1.00 32.00     0.041 C 
BRANCH   4   5
ATOM      5  CE  LYS A 135      28.603  34.416   8.768  1.00 34.25     0.338 C 
ATOM      6  NZ  LYS A 135      27.697  33.629   9.650  1.00 35.99     0.618 N 
ENDBRANCH   4   5
ENDBRANCH   3   4
ENDBRANCH   2   3
ENDBRANCH   1   2
END_RES LYS A 135
BEGIN_RES TYR A 136
REMARK  2 active torsions:
REMARK  status: ('A' for Active; 'I' for Inactive)
REMARK    5  A    between atoms: CA   and  CB  
REMARK    6  A    between atoms: CB   and  CG  
ROOT
ATOM      7  CA  TYR A 136      36.583  36.399   8.994  1.00 26.14     0.191 C 
ENDROOT
BRANCH   7   8
ATOM      8  CB  TYR A 136      37.367  36.835  10.240  1.00 28.16     0.060 C 
BRANCH   8   9
ATOM      9  CG  TYR A 136      37.196  38.302  10.549  1.00 31.88    -0.020 A 
ATOM     10  CD2 TYR A 136      36.021  38.979  10.215  1.00 32.67    -0.002 A 
ATOM     11  CE2 TYR A 136      35.873  40.343  10.505  1.00 33.89     0.027 A 
ATOM     12  CZ  TYR A 136      36.911  41.035  11.135  1.00 34.34     0.131 A 
ATOM     13  OH  TYR A 136      36.783  42.383  11.438  1.00 35.14    -0.190 OA
ATOM     14  CE1 TYR A 136      38.085  40.378  11.473  1.00 35.01     0.027 A 
ATOM     15  CD1 TYR A 136      38.223  39.021  11.173  1.00 33.57    -0.002 A 
ENDBRANCH   8   9
ENDBRANCH   7   8
END_RES TYR A 136
BEGIN_RES ASN A 133
REMARK  2 active torsions:
REMARK  status: ('A' for Active; 'I' for Inactive)
REMARK    7  A    between atoms: CA   and  CB  
REMARK    8  A    between atoms: CB   and  CG  
ROOT
ATOM     16  CA  ASN A 133      31.225  30.257  11.749  1.00 18.15     0.196 C 
ENDROOT
BRANCH  16  17
ATOM     17  CB  ASN A 133      30.092  31.240  11.460  1.00 18.27     0.126 C 
BRANCH  17  18
ATOM     18  CG  ASN A 133      28.754  30.580  11.333  1.00 18.94     0.276 C 
ATOM     19  OD1 ASN A 133      28.578  29.638  10.557  1.00 18.09    -0.269 OA
ATOM     20  ND2 ASN A 133      27.784  31.075  12.101  1.00 18.93    -0.107 N 
ENDBRANCH  17  18
ENDBRANCH  16  17
END_RES ASN A 133
