REMARK VINA RESULT:    -3.565      3.031      3.547
REMARK INTER + INTRA:          -8.246
REMARK INTER:                  -5.044
REMARK INTRA:                  -3.202
REMARK UNBOUND:                -3.327
REMARK SMILES Cc1cn(CCCCCC(=O)O)nn1
REMARK SMILES IDX 7 1 6 2 5 3 4 4 1 5 2 6 3 7 14 8 13 9 8 10 9 11 10 12 11 13
REMARK SMILES IDX 12 14
REMARK H PARENT 12 15
REMARK Flexibility Score: inf
ROOT
ATOM      1  C   UNL     1      36.560  35.415  15.069  1.00  0.00     0.002 C 
ENDROOT
BRANCH   1   2
ATOM      2  C   UNL     1      37.383  36.180  16.086  1.00  0.00     0.024 C 
BRANCH   2   3
ATOM      3  C   UNL     1      38.683  35.399  16.272  1.00  0.00     0.146 C 
BRANCH   3   4
ATOM      4  N   UNL     1      38.530  34.443  17.378  1.00  0.00    -0.252 N 
ATOM      5  C   UNL     1      37.204  33.425  20.646  1.00  0.00     0.070 C 
ATOM      6  C   UNL     1      37.874  33.574  19.313  1.00  0.00     0.080 A 
ATOM      7  C   UNL     1      37.799  34.682  18.485  1.00  0.00     0.134 A 
ATOM      8  N   UNL     1      38.654  32.702  18.667  1.00  0.00    -0.136 NA
ATOM      9  N   UNL     1      39.038  33.242  17.509  1.00  0.00    -0.067 NA
ENDBRANCH   3   4
ENDBRANCH   2   3
ENDBRANCH   1   2
BRANCH   1  10
ATOM     10  C   UNL     1      37.429  34.923  13.925  1.00  0.00     0.012 C 
BRANCH  10  11
ATOM     11  C   UNL     1      36.538  34.192  12.959  1.00  0.00     0.122 C 
BRANCH  11  12
ATOM     12  C   UNL     1      37.318  33.409  11.975  1.00  0.00     0.303 C 
ATOM     13  O   UNL     1      38.062  32.490  12.396  1.00  0.00    -0.252 OA
BRANCH  12  14
ATOM     14  O   UNL     1      37.261  33.644  10.613  1.00  0.00    -0.481 OA
ATOM     15  H   UNL     1      37.925  34.236  10.129  1.00  0.00     0.296 HD
ENDBRANCH  12  14
ENDBRANCH  11  12
ENDBRANCH  10  11
ENDBRANCH   1  10
TORSDOF 7
BEGIN_RES LYS A 135
REMARK  4 active torsions:
REMARK  status: ('A' for Active; 'I' for Inactive)
REMARK    1  A    between atoms: CA   and  CB  
REMARK    2  A    between atoms: CB   and  CG  
REMARK    3  A    between atoms: CG   and  CD  
REMARK    4  A    between atoms: CD   and  CE  
ROOT
ATOM      1  CA  LYS A 135      33.193  34.663   9.290  1.00 25.02     0.186 C 
ENDROOT
BRANCH   1   2
ATOM      2  CB  LYS A 135      32.060  35.360  10.034  1.00 26.63     0.034 C 
BRANCH   2   3
ATOM      3  CG  LYS A 135      30.807  35.519   9.212  1.00 29.45     0.005 C 
BRANCH   3   4
ATOM      4  CD  LYS A 135      30.159  34.168   8.955  1.00 32.00     0.041 C 
BRANCH   4   5
ATOM      5  CE  LYS A 135      28.684  34.336   8.644  1.00 34.25     0.338 C 
ATOM      6  NZ  LYS A 135      28.481  35.209   7.455  1.00 35.99     0.618 N 
ENDBRANCH   4   5
ENDBRANCH   3   4
ENDBRANCH   2   3
ENDBRANCH   1   2
END_RES LYS A 135
BEGIN_RES TYR A 136
REMARK  2 active torsions:
REMARK  status: ('A' for Active; 'I' for Inactive)
REMARK    5  A    between atoms: CA   and  CB  
REMARK    6  A    between atoms: CB   and  CG  
ROOT
ATOM      7  CA  TYR A 136      36.583  36.399   8.994  1.00 26.14     0.191 C 
ENDROOT
BRANCH   7   8
ATOM      8  CB  TYR A 136      37.367  36.835  10.240  1.00 28.16     0.060 C 
BRANCH   8   9
ATOM      9  CG  TYR A 136      36.771  38.051  10.905  1.00 31.88    -0.020 A 
ATOM     10  CD2 TYR A 136      36.119  39.036  10.159  1.00 32.67    -0.002 A 
ATOM     11  CE2 TYR A 136      35.570  40.163  10.786  1.00 33.89     0.027 A 
ATOM     12  CZ  TYR A 136      35.674  40.306  12.172  1.00 34.34     0.131 A 
ATOM     13  OH  TYR A 136      35.132  41.410  12.815  1.00 35.14    -0.190 OA
ATOM     14  CE1 TYR A 136      36.319  39.338  12.928  1.00 35.01     0.027 A 
ATOM     15  CD1 TYR A 136      36.868  38.223  12.291  1.00 33.57    -0.002 A 
ENDBRANCH   8   9
ENDBRANCH   7   8
END_RES TYR A 136
BEGIN_RES ASN A 133
REMARK  2 active torsions:
REMARK  status: ('A' for Active; 'I' for Inactive)
REMARK    7  A    between atoms: CA   and  CB  
REMARK    8  A    between atoms: CB   and  CG  
ROOT
ATOM     16  CA  ASN A 133      31.225  30.257  11.749  1.00 18.15     0.196 C 
ENDROOT
BRANCH  16  17
ATOM     17  CB  ASN A 133      30.092  31.240  11.460  1.00 18.27     0.126 C 
BRANCH  17  18
ATOM     18  CG  ASN A 133      28.748  30.586  11.377  1.00 18.94     0.276 C 
ATOM     19  OD1 ASN A 133      28.556  29.610  10.648  1.00 18.09    -0.269 OA
ATOM     20  ND2 ASN A 133      27.790  31.124  12.132  1.00 18.93    -0.107 N 
ENDBRANCH  17  18
ENDBRANCH  16  17
END_RES ASN A 133
