REMARK VINA RESULT:    -3.868      2.781      4.709
REMARK INTER + INTRA:          -7.511
REMARK INTER:                  -4.315
REMARK INTRA:                  -3.196
REMARK UNBOUND:                -2.965
REMARK SMILES COc1ccc(Cn2cc(C)nn2)cc1
REMARK SMILES IDX 6 1 5 2 4 3 3 4 15 5 14 6 7 7 8 8 11 9 10 10 9 11 12 12
REMARK SMILES IDX 13 13 2 14 1 15
REMARK H PARENT
REMARK Flexibility Score: inf
ROOT
ATOM      1  C   UNL     1      31.638  33.423  15.937  1.00  0.00    -0.026 A 
ATOM      2  C   UNL     1      31.140  32.215  15.468  1.00  0.00     0.009 A 
ATOM      3  C   UNL     1      30.466  31.360  16.341  1.00  0.00     0.047 A 
ATOM      4  C   UNL     1      30.312  31.742  17.658  1.00  0.00     0.118 A 
ATOM      5  C   UNL     1      30.821  32.949  18.086  1.00  0.00     0.047 A 
ATOM      6  C   UNL     1      31.491  33.814  17.243  1.00  0.00     0.009 A 
ENDROOT
BRANCH   1   7
ATOM      7  C   UNL     1      32.349  34.308  14.982  1.00  0.00     0.181 C 
BRANCH   7   8
ATOM      8  N   UNL     1      31.435  35.328  14.441  1.00  0.00    -0.248 N 
ATOM      9  C   UNL     1      28.957  36.721  12.142  1.00  0.00     0.070 C 
ATOM     10  C   UNL     1      29.959  36.391  13.212  1.00  0.00     0.080 A 
ATOM     11  C   UNL     1      30.643  35.209  13.366  1.00  0.00     0.134 A 
ATOM     12  N   UNL     1      30.357  37.201  14.203  1.00  0.00    -0.136 NA
ATOM     13  N   UNL     1      31.229  36.544  14.910  1.00  0.00    -0.067 NA
ENDBRANCH   7   8
ENDBRANCH   1   7
BRANCH   4  14
ATOM     14  O   UNL     1      29.637  30.863  18.491  1.00  0.00    -0.497 OA
ATOM     15  C   UNL     1      30.043  30.804  19.846  1.00  0.00     0.278 C 
ENDBRANCH   4  14
TORSDOF 3
BEGIN_RES LYS A 135
REMARK  4 active torsions:
REMARK  status: ('A' for Active; 'I' for Inactive)
REMARK    1  A    between atoms: CA   and  CB  
REMARK    2  A    between atoms: CB   and  CG  
REMARK    3  A    between atoms: CG   and  CD  
REMARK    4  A    between atoms: CD   and  CE  
ROOT
ATOM      1  CA  LYS A 135      33.193  34.663   9.290  1.00 25.02     0.186 C 
ENDROOT
BRANCH   1   2
ATOM      2  CB  LYS A 135      32.060  35.360  10.034  1.00 26.63     0.034 C 
BRANCH   2   3
ATOM      3  CG  LYS A 135      30.809  35.524   9.210  1.00 29.45     0.005 C 
BRANCH   3   4
ATOM      4  CD  LYS A 135      30.203  34.169   8.878  1.00 32.00     0.041 C 
BRANCH   4   5
ATOM      5  CE  LYS A 135      28.704  34.290   8.682  1.00 34.25     0.338 C 
ATOM      6  NZ  LYS A 135      28.382  35.185   7.537  1.00 35.99     0.618 N 
ENDBRANCH   4   5
ENDBRANCH   3   4
ENDBRANCH   2   3
ENDBRANCH   1   2
END_RES LYS A 135
BEGIN_RES TYR A 136
REMARK  2 active torsions:
REMARK  status: ('A' for Active; 'I' for Inactive)
REMARK    5  A    between atoms: CA   and  CB  
REMARK    6  A    between atoms: CB   and  CG  
ROOT
ATOM      7  CA  TYR A 136      36.583  36.399   8.994  1.00 26.14     0.191 C 
ENDROOT
BRANCH   7   8
ATOM      8  CB  TYR A 136      37.367  36.835  10.240  1.00 28.16     0.060 C 
BRANCH   8   9
ATOM      9  CG  TYR A 136      37.036  38.243  10.671  1.00 31.88    -0.020 A 
ATOM     10  CD2 TYR A 136      36.463  38.501  11.918  1.00 32.67    -0.002 A 
ATOM     11  CE2 TYR A 136      36.157  39.812  12.308  1.00 33.89     0.027 A 
ATOM     12  CZ  TYR A 136      36.427  40.875  11.442  1.00 34.34     0.131 A 
ATOM     13  OH  TYR A 136      36.140  42.182  11.810  1.00 35.14    -0.190 OA
ATOM     14  CE1 TYR A 136      36.995  40.636  10.198  1.00 35.01     0.027 A 
ATOM     15  CD1 TYR A 136      37.289  39.325   9.819  1.00 33.57    -0.002 A 
ENDBRANCH   8   9
ENDBRANCH   7   8
END_RES TYR A 136
BEGIN_RES ASN A 133
REMARK  2 active torsions:
REMARK  status: ('A' for Active; 'I' for Inactive)
REMARK    7  A    between atoms: CA   and  CB  
REMARK    8  A    between atoms: CB   and  CG  
ROOT
ATOM     16  CA  ASN A 133      31.225  30.257  11.749  1.00 18.15     0.196 C 
ENDROOT
BRANCH  16  17
ATOM     17  CB  ASN A 133      30.092  31.240  11.460  1.00 18.27     0.126 C 
BRANCH  17  18
ATOM     18  CG  ASN A 133      28.752  30.581  11.345  1.00 18.94     0.276 C 
ATOM     19  OD1 ASN A 133      28.584  29.599  10.620  1.00 18.09    -0.269 OA
ATOM     20  ND2 ASN A 133      27.772  31.124  12.066  1.00 18.93    -0.107 N 
ENDBRANCH  17  18
ENDBRANCH  16  17
END_RES ASN A 133
