REMARK VINA RESULT:    -3.818      0.000      0.000
REMARK INTER + INTRA:          -7.975
REMARK INTER:                  -4.485
REMARK INTRA:                  -3.489
REMARK UNBOUND:                -3.264
REMARK SMILES Cc1cn(CCNS(C)(=O)=O)nn1
REMARK SMILES IDX 6 1 5 2 4 3 1 4 2 5 3 6 13 7 12 8 7 9 8 11 10 12 11 13 9 14
REMARK H PARENT 7 10
REMARK Flexibility Score: inf
ROOT
ATOM      1  C   UNL     1      23.222  34.825  -2.655  1.00  0.00     0.122 C 
ENDROOT
BRANCH   1   2
ATOM      2  C   UNL     1      21.955  34.589  -1.824  1.00  0.00     0.162 C 
BRANCH   2   3
ATOM      3  N   UNL     1      22.196  33.365  -1.047  1.00  0.00    -0.251 N 
ATOM      4  C   UNL     1      22.399  29.749  -0.554  1.00  0.00     0.070 C 
ATOM      5  C   UNL     1      22.396  31.238  -0.473  1.00  0.00     0.080 A 
ATOM      6  C   UNL     1      22.091  32.105  -1.497  1.00  0.00     0.134 A 
ATOM      7  N   UNL     1      22.679  32.019   0.583  1.00  0.00    -0.136 NA
ATOM      8  N   UNL     1      22.555  33.281   0.219  1.00  0.00    -0.067 NA
ENDBRANCH   2   3
ENDBRANCH   1   2
BRANCH   1   9
ATOM      9  N   UNL     1      24.227  35.393  -1.804  1.00  0.00    -0.214 NA
ATOM     10  H   UNL     1      25.051  34.790  -1.711  1.00  0.00     0.141 HD
BRANCH   9  11
ATOM     11  S   UNL     1      24.620  36.986  -2.305  1.00  0.00     0.208 S 
ATOM     12  O   UNL     1      26.105  37.143  -2.444  1.00  0.00    -0.213 OA
ATOM     13  O   UNL     1      24.126  37.955  -1.245  1.00  0.00    -0.213 OA
ATOM     14  C   UNL     1      23.779  37.352  -3.804  1.00  0.00     0.176 C 
ENDBRANCH   9  11
ENDBRANCH   1   9
TORSDOF 4
BEGIN_RES LYS A 135
REMARK  4 active torsions:
REMARK  status: ('A' for Active; 'I' for Inactive)
REMARK    1  A    between atoms: CA   and  CB  
REMARK    2  A    between atoms: CB   and  CG  
REMARK    3  A    between atoms: CG   and  CD  
REMARK    4  A    between atoms: CD   and  CE  
ROOT
ATOM      1  CA  LYS A 135      33.193  34.663   9.290  1.00 25.02     0.186 C 
ENDROOT
BRANCH   1   2
ATOM      2  CB  LYS A 135      32.060  35.360  10.034  1.00 26.63     0.034 C 
BRANCH   2   3
ATOM      3  CG  LYS A 135      30.809  35.523   9.210  1.00 29.45     0.005 C 
BRANCH   3   4
ATOM      4  CD  LYS A 135      30.154  34.174   8.956  1.00 32.00     0.041 C 
BRANCH   4   5
ATOM      5  CE  LYS A 135      28.686  34.349   8.619  1.00 34.25     0.338 C 
ATOM      6  NZ  LYS A 135      27.819  33.687   9.633  1.00 35.99     0.618 N 
ENDBRANCH   4   5
ENDBRANCH   3   4
ENDBRANCH   2   3
ENDBRANCH   1   2
END_RES LYS A 135
BEGIN_RES TYR A 136
REMARK  2 active torsions:
REMARK  status: ('A' for Active; 'I' for Inactive)
REMARK    5  A    between atoms: CA   and  CB  
REMARK    6  A    between atoms: CB   and  CG  
ROOT
ATOM      7  CA  TYR A 136      36.583  36.399   8.994  1.00 26.14     0.191 C 
ENDROOT
BRANCH   7   8
ATOM      8  CB  TYR A 136      37.367  36.835  10.240  1.00 28.16     0.060 C 
BRANCH   8   9
ATOM      9  CG  TYR A 136      37.243  38.313  10.515  1.00 31.88    -0.020 A 
ATOM     10  CD2 TYR A 136      36.412  39.126   9.741  1.00 32.67    -0.002 A 
ATOM     11  CE2 TYR A 136      36.306  40.499  10.004  1.00 33.89     0.027 A 
ATOM     12  CZ  TYR A 136      37.038  41.063  11.052  1.00 34.34     0.131 A 
ATOM     13  OH  TYR A 136      36.942  42.419  11.335  1.00 35.14    -0.190 OA
ATOM     14  CE1 TYR A 136      37.869  40.271  11.830  1.00 35.01     0.027 A 
ATOM     15  CD1 TYR A 136      37.972  38.906  11.555  1.00 33.57    -0.002 A 
ENDBRANCH   8   9
ENDBRANCH   7   8
END_RES TYR A 136
BEGIN_RES ASN A 133
REMARK  2 active torsions:
REMARK  status: ('A' for Active; 'I' for Inactive)
REMARK    7  A    between atoms: CA   and  CB  
REMARK    8  A    between atoms: CB   and  CG  
ROOT
ATOM     16  CA  ASN A 133      31.225  30.257  11.749  1.00 18.15     0.196 C 
ENDROOT
BRANCH  16  17
ATOM     17  CB  ASN A 133      30.092  31.240  11.460  1.00 18.27     0.126 C 
BRANCH  17  18
ATOM     18  CG  ASN A 133      28.748  30.585  11.372  1.00 18.94     0.276 C 
ATOM     19  OD1 ASN A 133      28.555  29.623  10.625  1.00 18.09    -0.269 OA
ATOM     20  ND2 ASN A 133      27.794  31.107  12.142  1.00 18.93    -0.107 N 
ENDBRANCH  17  18
ENDBRANCH  16  17
END_RES ASN A 133
