REMARK VINA RESULT:    -4.617      3.335      8.032
REMARK INTER + INTRA:         -10.183
REMARK INTER:                  -6.981
REMARK INTRA:                  -3.202
REMARK UNBOUND:                -3.812
REMARK SMILES Cc1cn(C[C@@H](C(=O)O)C(c2ccccc2)c2ccccc2)nn1
REMARK SMILES IDX 6 1 5 2 4 3 1 4 2 5 3 6 24 7 23 8 7 9 8 10 9 11 10 13 11 14
REMARK SMILES IDX 12 15 16 16 13 17 15 18 14 19 17 20 18 21 22 22 19 23 21 24
REMARK SMILES IDX 20 25
REMARK H PARENT 9 12
REMARK Flexibility Score: inf
ROOT
ATOM      1  C   UNL     1      25.744  37.142  10.393  1.00  0.00     0.132 C 
ENDROOT
BRANCH   1   2
ATOM      2  C   UNL     1      27.217  37.317  10.567  1.00  0.00     0.162 C 
BRANCH   2   3
ATOM      3  N   UNL     1      27.765  36.323  11.458  1.00  0.00    -0.251 N 
ATOM      4  C   UNL     1      30.111  35.105  13.981  1.00  0.00     0.070 C 
ATOM      5  C   UNL     1      29.064  35.414  12.962  1.00  0.00     0.080 A 
ATOM      6  C   UNL     1      28.841  36.553  12.260  1.00  0.00     0.134 A 
ATOM      7  N   UNL     1      28.132  34.522  12.579  1.00  0.00    -0.136 NA
ATOM      8  N   UNL     1      27.366  35.082  11.682  1.00  0.00    -0.067 NA
ENDBRANCH   2   3
ENDBRANCH   1   2
BRANCH   1   9
ATOM      9  C   UNL     1      24.992  38.126  11.173  1.00  0.00     0.309 C 
ATOM     10  O   UNL     1      25.116  39.351  10.892  1.00  0.00    -0.252 OA
BRANCH   9  11
ATOM     11  O   UNL     1      24.138  37.744  12.219  1.00  0.00    -0.481 OA
ATOM     12  H   UNL     1      23.126  37.808  12.036  1.00  0.00     0.296 HD
ENDBRANCH   9  11
ENDBRANCH   1   9
BRANCH   1  13
ATOM     13  C   UNL     1      25.390  37.339   8.920  1.00  0.00     0.065 C 
BRANCH  13  14
ATOM     14  C   UNL     1      26.386  36.704   8.014  1.00  0.00    -0.040 A 
ATOM     15  C   UNL     1      26.807  35.400   8.121  1.00  0.00     0.004 A 
ATOM     16  C   UNL     1      26.908  37.502   7.001  1.00  0.00     0.004 A 
ATOM     17  C   UNL     1      27.740  34.910   7.222  1.00  0.00     0.000 A 
ATOM     18  C   UNL     1      27.840  36.984   6.116  1.00  0.00     0.000 A 
ATOM     19  C   UNL     1      28.257  35.691   6.224  1.00  0.00     0.000 A 
ENDBRANCH  13  14
BRANCH  13  20
ATOM     20  C   UNL     1      24.030  36.806   8.662  1.00  0.00    -0.040 A 
ATOM     21  C   UNL     1      23.194  37.425   7.755  1.00  0.00     0.004 A 
ATOM     22  C   UNL     1      23.564  35.679   9.302  1.00  0.00     0.004 A 
ATOM     23  C   UNL     1      21.929  36.985   7.455  1.00  0.00     0.000 A 
ATOM     24  C   UNL     1      22.289  35.210   9.019  1.00  0.00     0.000 A 
ATOM     25  C   UNL     1      21.494  35.846   8.120  1.00  0.00     0.000 A 
ENDBRANCH  13  20
ENDBRANCH   1  13
TORSDOF 7
BEGIN_RES LYS A 135
REMARK  4 active torsions:
REMARK  status: ('A' for Active; 'I' for Inactive)
REMARK    1  A    between atoms: CA   and  CB  
REMARK    2  A    between atoms: CB   and  CG  
REMARK    3  A    between atoms: CG   and  CD  
REMARK    4  A    between atoms: CD   and  CE  
ROOT
ATOM      1  CA  LYS A 135      33.193  34.663   9.290  1.00 25.02     0.186 C 
ENDROOT
BRANCH   1   2
ATOM      2  CB  LYS A 135      32.060  35.360  10.034  1.00 26.63     0.034 C 
BRANCH   2   3
ATOM      3  CG  LYS A 135      30.775  35.427   9.249  1.00 29.45     0.005 C 
BRANCH   3   4
ATOM      4  CD  LYS A 135      30.429  36.869   8.909  1.00 32.00     0.041 C 
BRANCH   4   5
ATOM      5  CE  LYS A 135      31.202  37.826   9.796  1.00 34.25     0.338 C 
ATOM      6  NZ  LYS A 135      31.746  38.967   9.008  1.00 35.99     0.618 N 
ENDBRANCH   4   5
ENDBRANCH   3   4
ENDBRANCH   2   3
ENDBRANCH   1   2
END_RES LYS A 135
BEGIN_RES TYR A 136
REMARK  2 active torsions:
REMARK  status: ('A' for Active; 'I' for Inactive)
REMARK    5  A    between atoms: CA   and  CB  
REMARK    6  A    between atoms: CB   and  CG  
ROOT
ATOM      7  CA  TYR A 136      36.583  36.399   8.994  1.00 26.14     0.191 C 
ENDROOT
BRANCH   7   8
ATOM      8  CB  TYR A 136      37.367  36.835  10.240  1.00 28.16     0.060 C 
BRANCH   8   9
ATOM      9  CG  TYR A 136      37.192  38.301  10.552  1.00 31.88    -0.020 A 
ATOM     10  CD2 TYR A 136      37.450  38.804  11.829  1.00 32.67    -0.002 A 
ATOM     11  CE2 TYR A 136      37.282  40.167  12.109  1.00 33.89     0.027 A 
ATOM     12  CZ  TYR A 136      36.853  41.035  11.102  1.00 34.34     0.131 A 
ATOM     13  OH  TYR A 136      36.688  42.390  11.354  1.00 35.14    -0.190 OA
ATOM     14  CE1 TYR A 136      36.592  40.552   9.828  1.00 35.01     0.027 A 
ATOM     15  CD1 TYR A 136      36.756  39.191   9.562  1.00 33.57    -0.002 A 
ENDBRANCH   8   9
ENDBRANCH   7   8
END_RES TYR A 136
BEGIN_RES ASN A 133
REMARK  2 active torsions:
REMARK  status: ('A' for Active; 'I' for Inactive)
REMARK    7  A    between atoms: CA   and  CB  
REMARK    8  A    between atoms: CB   and  CG  
ROOT
ATOM     16  CA  ASN A 133      31.225  30.257  11.749  1.00 18.15     0.196 C 
ENDROOT
BRANCH  16  17
ATOM     17  CB  ASN A 133      30.092  31.240  11.460  1.00 18.27     0.126 C 
BRANCH  17  18
ATOM     18  CG  ASN A 133      28.746  30.587  11.388  1.00 18.94     0.276 C 
ATOM     19  OD1 ASN A 133      28.551  29.606  10.668  1.00 18.09    -0.269 OA
ATOM     20  ND2 ASN A 133      27.793  31.133  12.141  1.00 18.93    -0.107 N 
ENDBRANCH  17  18
ENDBRANCH  16  17
END_RES ASN A 133
