REMARK VINA RESULT:    -4.694      8.716     11.846
REMARK INTER + INTRA:          -9.264
REMARK INTER:                  -5.474
REMARK INTRA:                  -3.790
REMARK UNBOUND:                -2.924
REMARK SMILES Cc1cn([C@@H](CCC(=O)O)C(=O)O)nn1
REMARK SMILES IDX 6 1 5 2 4 3 1 4 2 5 3 6 15 7 14 8 11 9 12 10 13 11 7 13 8 14
REMARK SMILES IDX 9 15 10 16
REMARK H PARENT 13 12 10 17
REMARK Flexibility Score: inf
ROOT
ATOM      1  C   UNL     1      35.894  38.376   3.696  1.00  0.00     0.051 C 
ENDROOT
BRANCH   1   2
ATOM      2  C   UNL     1      36.911  37.516   2.992  1.00  0.00     0.219 C 
BRANCH   2   3
ATOM      3  N   UNL     1      38.236  37.669   3.546  1.00  0.00    -0.238 N 
ATOM      4  C   UNL     1      41.320  36.523   5.131  1.00  0.00     0.070 C 
ATOM      5  C   UNL     1      40.190  37.248   4.490  1.00  0.00     0.080 A 
ATOM      6  C   UNL     1      39.017  36.690   4.084  1.00  0.00     0.135 A 
ATOM      7  N   UNL     1      40.117  38.558   4.195  1.00  0.00    -0.136 NA
ATOM      8  N   UNL     1      38.954  38.796   3.636  1.00  0.00    -0.066 NA
ENDBRANCH   2   3
BRANCH   2   9
ATOM      9  C   UNL     1      36.922  37.689   1.543  1.00  0.00     0.328 C 
ATOM     10  O   UNL     1      36.713  38.822   1.054  1.00  0.00    -0.250 OA
BRANCH   9  11
ATOM     11  O   UNL     1      37.154  36.646   0.669  1.00  0.00    -0.480 OA
ATOM     12  H   UNL     1      36.852  36.678  -0.315  1.00  0.00     0.296 HD
ENDBRANCH   9  11
ENDBRANCH   2   9
ENDBRANCH   1   2
BRANCH   1  13
ATOM     13  C   UNL     1      35.774  38.033   5.165  1.00  0.00     0.125 C 
BRANCH  13  14
ATOM     14  C   UNL     1      36.334  39.135   5.990  1.00  0.00     0.303 C 
ATOM     15  O   UNL     1      35.630  40.093   6.395  1.00  0.00    -0.252 OA
BRANCH  14  16
ATOM     16  O   UNL     1      37.675  39.149   6.349  1.00  0.00    -0.481 OA
ATOM     17  H   UNL     1      38.414  38.979   5.658  1.00  0.00     0.296 HD
ENDBRANCH  14  16
ENDBRANCH  13  14
ENDBRANCH   1  13
TORSDOF 7
BEGIN_RES LYS A 135
REMARK  4 active torsions:
REMARK  status: ('A' for Active; 'I' for Inactive)
REMARK    1  A    between atoms: CA   and  CB  
REMARK    2  A    between atoms: CB   and  CG  
REMARK    3  A    between atoms: CG   and  CD  
REMARK    4  A    between atoms: CD   and  CE  
ROOT
ATOM      1  CA  LYS A 135      33.193  34.663   9.290  1.00 25.02     0.186 C 
ENDROOT
BRANCH   1   2
ATOM      2  CB  LYS A 135      32.060  35.360  10.034  1.00 26.63     0.034 C 
BRANCH   2   3
ATOM      3  CG  LYS A 135      30.695  34.819   9.696  1.00 29.45     0.005 C 
BRANCH   3   4
ATOM      4  CD  LYS A 135      30.579  34.546   8.205  1.00 32.00     0.041 C 
BRANCH   4   5
ATOM      5  CE  LYS A 135      29.207  34.945   7.695  1.00 34.25     0.338 C 
ATOM      6  NZ  LYS A 135      28.133  34.429   8.588  1.00 35.99     0.618 N 
ENDBRANCH   4   5
ENDBRANCH   3   4
ENDBRANCH   2   3
ENDBRANCH   1   2
END_RES LYS A 135
BEGIN_RES TYR A 136
REMARK  2 active torsions:
REMARK  status: ('A' for Active; 'I' for Inactive)
REMARK    5  A    between atoms: CA   and  CB  
REMARK    6  A    between atoms: CB   and  CG  
ROOT
ATOM      7  CA  TYR A 136      36.583  36.399   8.994  1.00 26.14     0.191 C 
ENDROOT
BRANCH   7   8
ATOM      8  CB  TYR A 136      37.367  36.835  10.240  1.00 28.16     0.060 C 
BRANCH   8   9
ATOM      9  CG  TYR A 136      37.252  38.315  10.509  1.00 31.88    -0.020 A 
ATOM     10  CD2 TYR A 136      37.991  38.925  11.526  1.00 32.67    -0.002 A 
ATOM     11  CE2 TYR A 136      37.876  40.300  11.769  1.00 33.89     0.027 A 
ATOM     12  CZ  TYR A 136      37.013  41.073  10.987  1.00 34.34     0.131 A 
ATOM     13  OH  TYR A 136      36.889  42.438  11.205  1.00 35.14    -0.190 OA
ATOM     14  CE1 TYR A 136      36.271  40.484   9.974  1.00 35.01     0.027 A 
ATOM     15  CD1 TYR A 136      36.389  39.112   9.746  1.00 33.57    -0.002 A 
ENDBRANCH   8   9
ENDBRANCH   7   8
END_RES TYR A 136
BEGIN_RES ASN A 133
REMARK  2 active torsions:
REMARK  status: ('A' for Active; 'I' for Inactive)
REMARK    7  A    between atoms: CA   and  CB  
REMARK    8  A    between atoms: CB   and  CG  
ROOT
ATOM     16  CA  ASN A 133      31.225  30.257  11.749  1.00 18.15     0.196 C 
ENDROOT
BRANCH  16  17
ATOM     17  CB  ASN A 133      30.092  31.240  11.460  1.00 18.27     0.126 C 
BRANCH  17  18
ATOM     18  CG  ASN A 133      28.748  30.586  11.378  1.00 18.94     0.276 C 
ATOM     19  OD1 ASN A 133      28.554  29.615  10.644  1.00 18.09    -0.269 OA
ATOM     20  ND2 ASN A 133      27.793  31.119  12.140  1.00 18.93    -0.107 N 
ENDBRANCH  17  18
ENDBRANCH  16  17
END_RES ASN A 133
