REMARK VINA RESULT:    -4.868      3.383      4.598
REMARK INTER + INTRA:          -7.480
REMARK INTER:                  -4.423
REMARK INTRA:                  -3.057
REMARK UNBOUND:                -2.327
REMARK SMILES Cc1cn(-c2ccc(Br)cc2)nn1
REMARK SMILES IDX 5 1 6 2 7 3 8 4 9 5 10 6 11 7 4 8 1 9 2 10 3 11 13 12 12 13
REMARK H PARENT
REMARK Flexibility Score: inf
ROOT
ATOM      1  C   UNL     1      37.260  34.899  13.965  1.00  0.00     0.066 A 
ATOM      2  C   UNL     1      36.786  35.687  15.015  1.00  0.00     0.029 A 
ATOM      3  C   UNL     1      35.454  35.899  15.207  1.00  0.00     0.018 A 
ATOM      4  C   UNL     1      34.566  35.315  14.339  1.00  0.00     0.018 A 
ATOM      5  Br  UNL     1      32.698  35.608  14.604  1.00  0.00    -0.051 Br
ATOM      6  C   UNL     1      34.986  34.524  13.282  1.00  0.00     0.018 A 
ATOM      7  C   UNL     1      36.340  34.326  13.110  1.00  0.00     0.029 A 
ENDROOT
BRANCH   1   8
ATOM      8  N   UNL     1      38.643  34.687  13.777  1.00  0.00    -0.220 N 
ATOM      9  C   UNL     1      41.779  33.665  12.186  1.00  0.00     0.070 C 
ATOM     10  C   UNL     1      40.658  34.156  13.024  1.00  0.00     0.080 A 
ATOM     11  C   UNL     1      39.317  34.147  12.750  1.00  0.00     0.140 A 
ATOM     12  N   UNL     1      40.771  34.717  14.246  1.00  0.00    -0.135 NA
ATOM     13  N   UNL     1      39.556  35.027  14.677  1.00  0.00    -0.062 NA
ENDBRANCH   1   8
TORSDOF 1
BEGIN_RES LYS A 135
REMARK  4 active torsions:
REMARK  status: ('A' for Active; 'I' for Inactive)
REMARK    1  A    between atoms: CA   and  CB  
REMARK    2  A    between atoms: CB   and  CG  
REMARK    3  A    between atoms: CG   and  CD  
REMARK    4  A    between atoms: CD   and  CE  
ROOT
ATOM      1  CA  LYS A 135      33.193  34.663   9.290  1.00 25.02     0.186 C 
ENDROOT
BRANCH   1   2
ATOM      2  CB  LYS A 135      32.060  35.360  10.034  1.00 26.63     0.034 C 
BRANCH   2   3
ATOM      3  CG  LYS A 135      30.716  34.710   9.830  1.00 29.45     0.005 C 
BRANCH   3   4
ATOM      4  CD  LYS A 135      30.377  34.630   8.350  1.00 32.00     0.041 C 
BRANCH   4   5
ATOM      5  CE  LYS A 135      28.874  34.639   8.146  1.00 34.25     0.338 C 
ATOM      6  NZ  LYS A 135      28.177  33.953   9.268  1.00 35.99     0.618 N 
ENDBRANCH   4   5
ENDBRANCH   3   4
ENDBRANCH   2   3
ENDBRANCH   1   2
END_RES LYS A 135
BEGIN_RES TYR A 136
REMARK  2 active torsions:
REMARK  status: ('A' for Active; 'I' for Inactive)
REMARK    5  A    between atoms: CA   and  CB  
REMARK    6  A    between atoms: CB   and  CG  
ROOT
ATOM      7  CA  TYR A 136      36.583  36.399   8.994  1.00 26.14     0.191 C 
ENDROOT
BRANCH   7   8
ATOM      8  CB  TYR A 136      37.367  36.835  10.240  1.00 28.16     0.060 C 
BRANCH   8   9
ATOM      9  CG  TYR A 136      36.764  38.045  10.911  1.00 31.88    -0.020 A 
ATOM     10  CD2 TYR A 136      35.988  37.920  12.065  1.00 32.67    -0.002 A 
ATOM     11  CE2 TYR A 136      35.431  39.049  12.680  1.00 33.89     0.027 A 
ATOM     12  CZ  TYR A 136      35.653  40.316  12.134  1.00 34.34     0.131 A 
ATOM     13  OH  TYR A 136      35.117  41.450  12.730  1.00 35.14    -0.190 OA
ATOM     14  CE1 TYR A 136      36.420  40.459  10.987  1.00 35.01     0.027 A 
ATOM     15  CD1 TYR A 136      36.964  39.325  10.380  1.00 33.57    -0.002 A 
ENDBRANCH   8   9
ENDBRANCH   7   8
END_RES TYR A 136
BEGIN_RES ASN A 133
REMARK  2 active torsions:
REMARK  status: ('A' for Active; 'I' for Inactive)
REMARK    7  A    between atoms: CA   and  CB  
REMARK    8  A    between atoms: CB   and  CG  
ROOT
ATOM     16  CA  ASN A 133      31.225  30.257  11.749  1.00 18.15     0.196 C 
ENDROOT
BRANCH  16  17
ATOM     17  CB  ASN A 133      30.092  31.240  11.460  1.00 18.27     0.126 C 
BRANCH  17  18
ATOM     18  CG  ASN A 133      28.757  30.578  11.313  1.00 18.94     0.276 C 
ATOM     19  OD1 ASN A 133      28.605  29.606  10.570  1.00 18.09    -0.269 OA
ATOM     20  ND2 ASN A 133      27.764  31.104  12.028  1.00 18.93    -0.107 N 
ENDBRANCH  17  18
ENDBRANCH  16  17
END_RES ASN A 133
