REMARK VINA RESULT:    -6.755      2.931      4.828
REMARK INTER + INTRA:          -9.331
REMARK INTER:                  -5.901
REMARK INTRA:                  -3.430
REMARK UNBOUND:                -1.391
REMARK SMILES Cc1cn(C(c2ccccc2)c2ccccc2)nn1
REMARK SMILES IDX 5 1 4 2 1 3 2 4 3 5 19 6 18 7 6 8 7 9 11 10 8 11 10 12 9 13
REMARK SMILES IDX 12 14 13 15 17 16 14 17 16 18 15 19
REMARK H PARENT
REMARK Flexibility Score: inf
ROOT
ATOM      1  C   UNL     1      38.284  35.688  14.990  1.00  0.00     0.169 C 
ENDROOT
BRANCH   1   2
ATOM      2  N   UNL     1      39.202  35.490  13.870  1.00  0.00    -0.240 N 
ATOM      3  C   UNL     1      40.940  36.272  10.752  1.00  0.00     0.070 C 
ATOM      4  C   UNL     1      40.373  35.749  12.000  1.00  0.00     0.080 A 
ATOM      5  C   UNL     1      39.425  36.324  12.839  1.00  0.00     0.135 A 
ATOM      6  N   UNL     1      40.682  34.573  12.575  1.00  0.00    -0.136 NA
ATOM      7  N   UNL     1      39.977  34.439  13.681  1.00  0.00    -0.066 NA
ENDBRANCH   1   2
BRANCH   1   8
ATOM      8  C   UNL     1      38.715  34.999  16.225  1.00  0.00    -0.019 A 
ATOM      9  C   UNL     1      38.321  33.732  16.562  1.00  0.00     0.006 A 
ATOM     10  C   UNL     1      39.574  35.638  17.115  1.00  0.00     0.006 A 
ATOM     11  C   UNL     1      38.776  33.140  17.746  1.00  0.00     0.000 A 
ATOM     12  C   UNL     1      40.020  35.059  18.277  1.00  0.00     0.000 A 
ATOM     13  C   UNL     1      39.622  33.794  18.606  1.00  0.00     0.000 A 
ENDBRANCH   1   8
BRANCH   1  14
ATOM     14  C   UNL     1      36.893  35.442  14.607  1.00  0.00    -0.019 A 
ATOM     15  C   UNL     1      35.800  36.008  15.226  1.00  0.00     0.006 A 
ATOM     16  C   UNL     1      36.612  34.603  13.545  1.00  0.00     0.006 A 
ATOM     17  C   UNL     1      34.533  35.744  14.804  1.00  0.00     0.000 A 
ATOM     18  C   UNL     1      35.341  34.320  13.098  1.00  0.00     0.000 A 
ATOM     19  C   UNL     1      34.294  34.904  13.744  1.00  0.00     0.000 A 
ENDBRANCH   1  14
TORSDOF 3
BEGIN_RES LYS A 135
REMARK  4 active torsions:
REMARK  status: ('A' for Active; 'I' for Inactive)
REMARK    1  A    between atoms: CA   and  CB  
REMARK    2  A    between atoms: CB   and  CG  
REMARK    3  A    between atoms: CG   and  CD  
REMARK    4  A    between atoms: CD   and  CE  
ROOT
ATOM      1  CA  LYS A 135      33.193  34.663   9.290  1.00 25.02     0.186 C 
ENDROOT
BRANCH   1   2
ATOM      2  CB  LYS A 135      32.060  35.360  10.034  1.00 26.63     0.034 C 
BRANCH   2   3
ATOM      3  CG  LYS A 135      30.851  35.628   9.176  1.00 29.45     0.005 C 
BRANCH   3   4
ATOM      4  CD  LYS A 135      30.332  34.337   8.561  1.00 32.00     0.041 C 
BRANCH   4   5
ATOM      5  CE  LYS A 135      28.816  34.308   8.585  1.00 34.25     0.338 C 
ATOM      6  NZ  LYS A 135      28.306  34.028   9.956  1.00 35.99     0.618 N 
ENDBRANCH   4   5
ENDBRANCH   3   4
ENDBRANCH   2   3
ENDBRANCH   1   2
END_RES LYS A 135
BEGIN_RES TYR A 136
REMARK  2 active torsions:
REMARK  status: ('A' for Active; 'I' for Inactive)
REMARK    5  A    between atoms: CA   and  CB  
REMARK    6  A    between atoms: CB   and  CG  
ROOT
ATOM      7  CA  TYR A 136      36.583  36.399   8.994  1.00 26.14     0.191 C 
ENDROOT
BRANCH   7   8
ATOM      8  CB  TYR A 136      37.367  36.835  10.240  1.00 28.16     0.060 C 
BRANCH   8   9
ATOM      9  CG  TYR A 136      36.788  38.069  10.887  1.00 31.88    -0.020 A 
ATOM     10  CD2 TYR A 136      37.051  39.343  10.378  1.00 32.67    -0.002 A 
ATOM     11  CE2 TYR A 136      36.509  40.483  10.988  1.00 33.89     0.027 A 
ATOM     12  CZ  TYR A 136      35.699  40.347  12.118  1.00 34.34     0.131 A 
ATOM     13  OH  TYR A 136      35.147  41.462  12.733  1.00 35.14    -0.190 OA
ATOM     14  CE1 TYR A 136      35.429  39.090  12.637  1.00 35.01     0.027 A 
ATOM     15  CD1 TYR A 136      35.979  37.962  12.025  1.00 33.57    -0.002 A 
ENDBRANCH   8   9
ENDBRANCH   7   8
END_RES TYR A 136
BEGIN_RES ASN A 133
REMARK  2 active torsions:
REMARK  status: ('A' for Active; 'I' for Inactive)
REMARK    7  A    between atoms: CA   and  CB  
REMARK    8  A    between atoms: CB   and  CG  
ROOT
ATOM     16  CA  ASN A 133      31.225  30.257  11.749  1.00 18.15     0.196 C 
ENDROOT
BRANCH  16  17
ATOM     17  CB  ASN A 133      30.092  31.240  11.460  1.00 18.27     0.126 C 
BRANCH  17  18
ATOM     18  CG  ASN A 133      28.756  30.578  11.317  1.00 18.94     0.276 C 
ATOM     19  OD1 ASN A 133      28.599  29.614  10.566  1.00 18.09    -0.269 OA
ATOM     20  ND2 ASN A 133      27.768  31.097  12.045  1.00 18.93    -0.107 N 
ENDBRANCH  17  18
ENDBRANCH  16  17
END_RES ASN A 133
