REMARK VINA RESULT:    -3.196      8.077     16.568
REMARK INTER + INTRA:          -6.632
REMARK INTER:                  -3.442
REMARK INTRA:                  -3.190
REMARK UNBOUND:                -3.249
REMARK SMILES Cc1cn(C2CCN(C)CC2)nn1
REMARK SMILES IDX 5 1 6 2 7 3 8 4 9 5 10 6 11 7 4 8 1 9 2 10 3 11 13 12 12 13
REMARK H PARENT
REMARK Flexibility Score: inf
ROOT
ATOM      1  C   UNL     1      38.449  34.744  16.753  1.00  0.00     0.111 C 
ATOM      2  C   UNL     1      37.679  35.650  17.667  1.00  0.00     0.043 C 
ATOM      3  C   UNL     1      37.382  34.853  18.939  1.00  0.00     0.086 C 
ATOM      4  N   UNL     1      38.619  34.387  19.438  1.00  0.00    -0.306 NA
ATOM      5  C   UNL     1      38.765  34.311  20.837  1.00  0.00     0.105 C 
ATOM      6  C   UNL     1      39.298  33.427  18.658  1.00  0.00     0.086 C 
ATOM      7  C   UNL     1      38.607  33.347  17.291  1.00  0.00     0.043 C 
ENDROOT
BRANCH   1   8
ATOM      8  N   UNL     1      37.741  34.691  15.490  1.00  0.00    -0.249 N 
ATOM      9  C   UNL     1      37.056  33.414  12.189  1.00  0.00     0.070 C 
ATOM     10  C   UNL     1      37.105  34.130  13.484  1.00  0.00     0.080 A 
ATOM     11  C   UNL     1      37.997  33.850  14.490  1.00  0.00     0.134 A 
ATOM     12  N   UNL     1      36.328  35.139  13.905  1.00  0.00    -0.136 NA
ATOM     13  N   UNL     1      36.740  35.451  15.116  1.00  0.00    -0.067 NA
ENDBRANCH   1   8
TORSDOF 1
BEGIN_RES LYS A 135
REMARK  4 active torsions:
REMARK  status: ('A' for Active; 'I' for Inactive)
REMARK    1  A    between atoms: CA   and  CB  
REMARK    2  A    between atoms: CB   and  CG  
REMARK    3  A    between atoms: CG   and  CD  
REMARK    4  A    between atoms: CD   and  CE  
ROOT
ATOM      1  CA  LYS A 135      33.193  34.663   9.290  1.00 25.02     0.186 C 
ENDROOT
BRANCH   1   2
ATOM      2  CB  LYS A 135      32.060  35.360  10.034  1.00 26.63     0.034 C 
BRANCH   2   3
ATOM      3  CG  LYS A 135      30.694  34.829   9.685  1.00 29.45     0.005 C 
BRANCH   3   4
ATOM      4  CD  LYS A 135      30.611  34.489   8.205  1.00 32.00     0.041 C 
BRANCH   4   5
ATOM      5  CE  LYS A 135      29.355  35.077   7.593  1.00 34.25     0.338 C 
ATOM      6  NZ  LYS A 135      28.139  34.621   8.321  1.00 35.99     0.618 N 
ENDBRANCH   4   5
ENDBRANCH   3   4
ENDBRANCH   2   3
ENDBRANCH   1   2
END_RES LYS A 135
BEGIN_RES TYR A 136
REMARK  2 active torsions:
REMARK  status: ('A' for Active; 'I' for Inactive)
REMARK    5  A    between atoms: CA   and  CB  
REMARK    6  A    between atoms: CB   and  CG  
ROOT
ATOM      7  CA  TYR A 136      36.583  36.399   8.994  1.00 26.14     0.191 C 
ENDROOT
BRANCH   7   8
ATOM      8  CB  TYR A 136      37.367  36.835  10.240  1.00 28.16     0.060 C 
BRANCH   8   9
ATOM      9  CG  TYR A 136      37.028  38.239  10.677  1.00 31.88    -0.020 A 
ATOM     10  CD2 TYR A 136      36.436  38.488  11.917  1.00 32.67    -0.002 A 
ATOM     11  CE2 TYR A 136      36.123  39.795  12.312  1.00 33.89     0.027 A 
ATOM     12  CZ  TYR A 136      36.407  40.865  11.459  1.00 34.34     0.131 A 
ATOM     13  OH  TYR A 136      36.113  42.169  11.832  1.00 35.14    -0.190 OA
ATOM     14  CE1 TYR A 136      36.994  40.636  10.223  1.00 35.01     0.027 A 
ATOM     15  CD1 TYR A 136      37.295  39.328   9.837  1.00 33.57    -0.002 A 
ENDBRANCH   8   9
ENDBRANCH   7   8
END_RES TYR A 136
BEGIN_RES ASN A 133
REMARK  2 active torsions:
REMARK  status: ('A' for Active; 'I' for Inactive)
REMARK    7  A    between atoms: CA   and  CB  
REMARK    8  A    between atoms: CB   and  CG  
ROOT
ATOM     16  CA  ASN A 133      31.225  30.257  11.749  1.00 18.15     0.196 C 
ENDROOT
BRANCH  16  17
ATOM     17  CB  ASN A 133      30.092  31.240  11.460  1.00 18.27     0.126 C 
BRANCH  17  18
ATOM     18  CG  ASN A 133      28.750  30.584  11.362  1.00 18.94     0.276 C 
ATOM     19  OD1 ASN A 133      28.571  29.603  10.637  1.00 18.09    -0.269 OA
ATOM     20  ND2 ASN A 133      27.780  31.126  12.097  1.00 18.93    -0.107 N 
ENDBRANCH  17  18
ENDBRANCH  16  17
END_RES ASN A 133
