REMARK VINA RESULT:    -4.521      4.942      7.400
REMARK INTER + INTRA:         -10.050
REMARK INTER:                  -6.238
REMARK INTRA:                  -3.812
REMARK UNBOUND:                -3.812
REMARK SMILES Cc1cn(C[C@@H](C(=O)O)C(c2ccccc2)c2ccccc2)nn1
REMARK SMILES IDX 6 1 5 2 4 3 1 4 2 5 3 6 24 7 23 8 7 9 8 10 9 11 10 13 11 14
REMARK SMILES IDX 12 15 16 16 13 17 15 18 14 19 17 20 18 21 22 22 19 23 21 24
REMARK SMILES IDX 20 25
REMARK H PARENT 9 12
REMARK Flexibility Score: inf
ROOT
ATOM      1  C   UNL     1      39.912  35.142  14.834  1.00  0.00     0.132 C 
ENDROOT
BRANCH   1   2
ATOM      2  C   UNL     1      40.997  34.766  15.788  1.00  0.00     0.162 C 
BRANCH   2   3
ATOM      3  N   UNL     1      41.683  35.931  16.295  1.00  0.00    -0.251 N 
ATOM      4  C   UNL     1      42.535  38.388  18.862  1.00  0.00     0.070 C 
ATOM      5  C   UNL     1      42.320  37.487  17.690  1.00  0.00     0.080 A 
ATOM      6  C   UNL     1      41.519  36.400  17.562  1.00  0.00     0.134 A 
ATOM      7  N   UNL     1      42.949  37.658  16.512  1.00  0.00    -0.136 NA
ATOM      8  N   UNL     1      42.556  36.720  15.692  1.00  0.00    -0.067 NA
ENDBRANCH   2   3
ENDBRANCH   1   2
BRANCH   1   9
ATOM      9  C   UNL     1      40.280  34.829  13.453  1.00  0.00     0.309 C 
ATOM     10  O   UNL     1      40.465  35.778  12.640  1.00  0.00    -0.252 OA
BRANCH   9  11
ATOM     11  O   UNL     1      40.435  33.506  13.010  1.00  0.00    -0.481 OA
ATOM     12  H   UNL     1      40.196  33.318  12.026  1.00  0.00     0.296 HD
ENDBRANCH   9  11
ENDBRANCH   1   9
BRANCH   1  13
ATOM     13  C   UNL     1      38.651  34.350  15.176  1.00  0.00     0.065 C 
BRANCH  13  14
ATOM     14  C   UNL     1      38.392  34.312  16.641  1.00  0.00    -0.040 A 
ATOM     15  C   UNL     1      37.923  35.378  17.371  1.00  0.00     0.004 A 
ATOM     16  C   UNL     1      38.649  33.108  17.291  1.00  0.00     0.004 A 
ATOM     17  C   UNL     1      37.716  35.232  18.733  1.00  0.00     0.000 A 
ATOM     18  C   UNL     1      38.433  32.993  18.654  1.00  0.00     0.000 A 
ATOM     19  C   UNL     1      37.968  34.050  19.377  1.00  0.00     0.000 A 
ENDBRANCH  13  14
BRANCH  13  20
ATOM     20  C   UNL     1      37.492  34.928  14.453  1.00  0.00    -0.040 A 
ATOM     21  C   UNL     1      36.685  34.128  13.670  1.00  0.00     0.004 A 
ATOM     22  C   UNL     1      37.177  36.264  14.547  1.00  0.00     0.004 A 
ATOM     23  C   UNL     1      35.589  34.586  12.981  1.00  0.00     0.000 A 
ATOM     24  C   UNL     1      36.075  36.758  13.862  1.00  0.00     0.000 A 
ATOM     25  C   UNL     1      35.303  35.940  13.100  1.00  0.00     0.000 A 
ENDBRANCH  13  20
ENDBRANCH   1  13
TORSDOF 7
BEGIN_RES LYS A 135
REMARK  4 active torsions:
REMARK  status: ('A' for Active; 'I' for Inactive)
REMARK    1  A    between atoms: CA   and  CB  
REMARK    2  A    between atoms: CB   and  CG  
REMARK    3  A    between atoms: CG   and  CD  
REMARK    4  A    between atoms: CD   and  CE  
ROOT
ATOM      1  CA  LYS A 135      33.193  34.663   9.290  1.00 25.02     0.186 C 
ENDROOT
BRANCH   1   2
ATOM      2  CB  LYS A 135      32.060  35.360  10.034  1.00 26.63     0.034 C 
BRANCH   2   3
ATOM      3  CG  LYS A 135      30.800  35.500   9.219  1.00 29.45     0.005 C 
BRANCH   3   4
ATOM      4  CD  LYS A 135      30.148  34.143   9.002  1.00 32.00     0.041 C 
BRANCH   4   5
ATOM      5  CE  LYS A 135      28.667  34.303   8.717  1.00 34.25     0.338 C 
ATOM      6  NZ  LYS A 135      28.440  35.166   7.525  1.00 35.99     0.618 N 
ENDBRANCH   4   5
ENDBRANCH   3   4
ENDBRANCH   2   3
ENDBRANCH   1   2
END_RES LYS A 135
BEGIN_RES TYR A 136
REMARK  2 active torsions:
REMARK  status: ('A' for Active; 'I' for Inactive)
REMARK    5  A    between atoms: CA   and  CB  
REMARK    6  A    between atoms: CB   and  CG  
ROOT
ATOM      7  CA  TYR A 136      36.583  36.399   8.994  1.00 26.14     0.191 C 
ENDROOT
BRANCH   7   8
ATOM      8  CB  TYR A 136      37.367  36.835  10.240  1.00 28.16     0.060 C 
BRANCH   8   9
ATOM      9  CG  TYR A 136      37.037  38.243  10.670  1.00 31.88    -0.020 A 
ATOM     10  CD2 TYR A 136      37.905  38.973  11.485  1.00 32.67    -0.002 A 
ATOM     11  CE2 TYR A 136      37.588  40.280  11.880  1.00 33.89     0.027 A 
ATOM     12  CZ  TYR A 136      36.391  40.862  11.456  1.00 34.34     0.131 A 
ATOM     13  OH  TYR A 136      36.060  42.157  11.829  1.00 35.14    -0.190 OA
ATOM     14  CE1 TYR A 136      35.517  40.151  10.647  1.00 35.01     0.027 A 
ATOM     15  CD1 TYR A 136      35.840  38.848  10.265  1.00 33.57    -0.002 A 
ENDBRANCH   8   9
ENDBRANCH   7   8
END_RES TYR A 136
BEGIN_RES ASN A 133
REMARK  2 active torsions:
REMARK  status: ('A' for Active; 'I' for Inactive)
REMARK    7  A    between atoms: CA   and  CB  
REMARK    8  A    between atoms: CB   and  CG  
ROOT
ATOM     16  CA  ASN A 133      31.225  30.257  11.749  1.00 18.15     0.196 C 
ENDROOT
BRANCH  16  17
ATOM     17  CB  ASN A 133      30.092  31.240  11.460  1.00 18.27     0.126 C 
BRANCH  17  18
ATOM     18  CG  ASN A 133      28.750  30.583  11.357  1.00 18.94     0.276 C 
ATOM     19  OD1 ASN A 133      28.574  29.602  10.632  1.00 18.09    -0.269 OA
ATOM     20  ND2 ASN A 133      27.778  31.125  12.090  1.00 18.93    -0.107 N 
ENDBRANCH  17  18
ENDBRANCH  16  17
END_RES ASN A 133
