REMARK VINA RESULT:    -3.015      5.958      7.873
REMARK INTER + INTRA:          -6.451
REMARK INTER:                  -3.232
REMARK INTRA:                  -3.218
REMARK UNBOUND:                -3.260
REMARK SMILES Cc1cn(-c2ccccc2Br)nn1
REMARK SMILES IDX 5 1 6 2 7 3 8 4 9 5 10 6 11 7 4 8 1 9 2 10 3 11 13 12 12 13
REMARK H PARENT
REMARK Flexibility Score: inf
ROOT
ATOM      1  C   UNL     1      37.440  39.276   3.958  1.00  0.00     0.081 A 
ATOM      2  C   UNL     1      36.346  40.054   3.645  1.00  0.00     0.029 A 
ATOM      3  C   UNL     1      35.399  39.581   2.760  1.00  0.00     0.002 A 
ATOM      4  C   UNL     1      35.551  38.332   2.193  1.00  0.00     0.001 A 
ATOM      5  C   UNL     1      36.651  37.574   2.519  1.00  0.00     0.018 A 
ATOM      6  C   UNL     1      37.617  38.017   3.401  1.00  0.00     0.043 A 
ATOM      7  Br  UNL     1      39.136  36.941   3.836  1.00  0.00    -0.048 Br
ENDROOT
BRANCH   1   8
ATOM      8  N   UNL     1      38.389  39.794   4.867  1.00  0.00    -0.219 N 
ATOM      9  C   UNL     1      39.499  40.387   8.283  1.00  0.00     0.070 C 
ATOM     10  C   UNL     1      39.309  40.291   6.817  1.00  0.00     0.080 A 
ATOM     11  C   UNL     1      38.238  39.704   6.218  1.00  0.00     0.140 A 
ATOM     12  N   UNL     1      40.102  40.735   5.833  1.00  0.00    -0.135 NA
ATOM     13  N   UNL     1      39.524  40.422   4.672  1.00  0.00    -0.062 NA
ENDBRANCH   1   8
TORSDOF 1
BEGIN_RES LYS A 135
REMARK  4 active torsions:
REMARK  status: ('A' for Active; 'I' for Inactive)
REMARK    1  A    between atoms: CA   and  CB  
REMARK    2  A    between atoms: CB   and  CG  
REMARK    3  A    between atoms: CG   and  CD  
REMARK    4  A    between atoms: CD   and  CE  
ROOT
ATOM      1  CA  LYS A 135      33.193  34.663   9.290  1.00 25.02     0.186 C 
ENDROOT
BRANCH   1   2
ATOM      2  CB  LYS A 135      32.060  35.360  10.034  1.00 26.63     0.034 C 
BRANCH   2   3
ATOM      3  CG  LYS A 135      30.730  34.666   9.893  1.00 29.45     0.005 C 
BRANCH   3   4
ATOM      4  CD  LYS A 135      30.328  34.568   8.429  1.00 32.00     0.041 C 
BRANCH   4   5
ATOM      5  CE  LYS A 135      28.818  34.544   8.292  1.00 34.25     0.338 C 
ATOM      6  NZ  LYS A 135      28.186  33.838   9.441  1.00 35.99     0.618 N 
ENDBRANCH   4   5
ENDBRANCH   3   4
ENDBRANCH   2   3
ENDBRANCH   1   2
END_RES LYS A 135
BEGIN_RES TYR A 136
REMARK  2 active torsions:
REMARK  status: ('A' for Active; 'I' for Inactive)
REMARK    5  A    between atoms: CA   and  CB  
REMARK    6  A    between atoms: CB   and  CG  
ROOT
ATOM      7  CA  TYR A 136      36.583  36.399   8.994  1.00 26.14     0.191 C 
ENDROOT
BRANCH   7   8
ATOM      8  CB  TYR A 136      37.367  36.835  10.240  1.00 28.16     0.060 C 
BRANCH   8   9
ATOM      9  CG  TYR A 136      37.233  38.311  10.523  1.00 31.88    -0.020 A 
ATOM     10  CD2 TYR A 136      38.000  38.930  11.512  1.00 32.67    -0.002 A 
ATOM     11  CE2 TYR A 136      37.867  40.302  11.768  1.00 33.89     0.027 A 
ATOM     12  CZ  TYR A 136      36.957  41.061  11.027  1.00 34.34     0.131 A 
ATOM     13  OH  TYR A 136      36.814  42.422  11.259  1.00 35.14    -0.190 OA
ATOM     14  CE1 TYR A 136      36.186  40.462  10.041  1.00 35.01     0.027 A 
ATOM     15  CD1 TYR A 136      36.324  39.094   9.800  1.00 33.57    -0.002 A 
ENDBRANCH   8   9
ENDBRANCH   7   8
END_RES TYR A 136
BEGIN_RES ASN A 133
REMARK  2 active torsions:
REMARK  status: ('A' for Active; 'I' for Inactive)
REMARK    7  A    between atoms: CA   and  CB  
REMARK    8  A    between atoms: CB   and  CG  
ROOT
ATOM     16  CA  ASN A 133      31.225  30.257  11.749  1.00 18.15     0.196 C 
ENDROOT
BRANCH  16  17
ATOM     17  CB  ASN A 133      30.092  31.240  11.460  1.00 18.27     0.126 C 
BRANCH  17  18
ATOM     18  CG  ASN A 133      28.752  30.581  11.345  1.00 18.94     0.276 C 
ATOM     19  OD1 ASN A 133      28.583  29.600  10.619  1.00 18.09    -0.269 OA
ATOM     20  ND2 ASN A 133      27.773  31.123  12.069  1.00 18.93    -0.107 N 
ENDBRANCH  17  18
ENDBRANCH  16  17
END_RES ASN A 133
