REMARK VINA RESULT:    -3.825      6.901      7.367
REMARK INTER + INTRA:          -7.129
REMARK INTER:                  -4.499
REMARK INTRA:                  -2.630
REMARK UNBOUND:                -3.081
REMARK SMILES Cc1cn(-c2cccc(Cl)c2)nn1
REMARK SMILES IDX 5 1 6 2 7 3 8 4 9 5 10 6 11 7 4 8 1 9 2 10 3 11 13 12 12 13
REMARK H PARENT
REMARK Flexibility Score: inf
ROOT
ATOM      1  C   UNL     1      26.534  36.639   7.408  1.00  0.00     0.068 A 
ATOM      2  C   UNL     1      27.346  35.571   7.128  1.00  0.00     0.028 A 
ATOM      3  C   UNL     1      28.424  35.700   6.286  1.00  0.00     0.004 A 
ATOM      4  C   UNL     1      28.678  36.935   5.719  1.00  0.00     0.020 A 
ATOM      5  C   UNL     1      27.887  38.037   5.973  1.00  0.00     0.043 A 
ATOM      6  Cl  UNL     1      28.228  39.609   5.239  1.00  0.00    -0.084 Cl
ATOM      7  C   UNL     1      26.818  37.856   6.824  1.00  0.00     0.049 A 
ENDROOT
BRANCH   1   8
ATOM      8  N   UNL     1      25.398  36.523   8.290  1.00  0.00    -0.220 N 
ATOM      9  C   UNL     1      23.227  35.181  10.845  1.00  0.00     0.070 C 
ATOM     10  C   UNL     1      23.948  35.898   9.786  1.00  0.00     0.080 A 
ATOM     11  C   UNL     1      25.143  35.584   9.196  1.00  0.00     0.140 A 
ATOM     12  N   UNL     1      23.537  37.032   9.191  1.00  0.00    -0.135 NA
ATOM     13  N   UNL     1      24.415  37.407   8.287  1.00  0.00    -0.062 NA
ENDBRANCH   1   8
TORSDOF 1
BEGIN_RES LYS A 135
REMARK  4 active torsions:
REMARK  status: ('A' for Active; 'I' for Inactive)
REMARK    1  A    between atoms: CA   and  CB  
REMARK    2  A    between atoms: CB   and  CG  
REMARK    3  A    between atoms: CG   and  CD  
REMARK    4  A    between atoms: CD   and  CE  
ROOT
ATOM      1  CA  LYS A 135      33.193  34.663   9.290  1.00 25.02     0.186 C 
ENDROOT
BRANCH   1   2
ATOM      2  CB  LYS A 135      32.060  35.360  10.034  1.00 26.63     0.034 C 
BRANCH   2   3
ATOM      3  CG  LYS A 135      30.790  35.472   9.230  1.00 29.45     0.005 C 
BRANCH   3   4
ATOM      4  CD  LYS A 135      29.953  34.211   9.371  1.00 32.00     0.041 C 
BRANCH   4   5
ATOM      5  CE  LYS A 135      28.788  34.447  10.312  1.00 34.25     0.338 C 
ATOM      6  NZ  LYS A 135      28.542  35.903  10.507  1.00 35.99     0.618 N 
ENDBRANCH   4   5
ENDBRANCH   3   4
ENDBRANCH   2   3
ENDBRANCH   1   2
END_RES LYS A 135
BEGIN_RES TYR A 136
REMARK  2 active torsions:
REMARK  status: ('A' for Active; 'I' for Inactive)
REMARK    5  A    between atoms: CA   and  CB  
REMARK    6  A    between atoms: CB   and  CG  
ROOT
ATOM      7  CA  TYR A 136      36.583  36.399   8.994  1.00 26.14     0.191 C 
ENDROOT
BRANCH   7   8
ATOM      8  CB  TYR A 136      37.367  36.835  10.240  1.00 28.16     0.060 C 
BRANCH   8   9
ATOM      9  CG  TYR A 136      37.181  38.298  10.560  1.00 31.88    -0.020 A 
ATOM     10  CD2 TYR A 136      37.427  38.795  11.842  1.00 32.67    -0.002 A 
ATOM     11  CE2 TYR A 136      37.250  40.155  12.129  1.00 33.89     0.027 A 
ATOM     12  CZ  TYR A 136      36.823  41.026  11.124  1.00 34.34     0.131 A 
ATOM     13  OH  TYR A 136      36.648  42.378  11.384  1.00 35.14    -0.190 OA
ATOM     14  CE1 TYR A 136      36.573  40.550   9.845  1.00 35.01     0.027 A 
ATOM     15  CD1 TYR A 136      36.747  39.192   9.573  1.00 33.57    -0.002 A 
ENDBRANCH   8   9
ENDBRANCH   7   8
END_RES TYR A 136
BEGIN_RES ASN A 133
REMARK  2 active torsions:
REMARK  status: ('A' for Active; 'I' for Inactive)
REMARK    7  A    between atoms: CA   and  CB  
REMARK    8  A    between atoms: CB   and  CG  
ROOT
ATOM     16  CA  ASN A 133      31.225  30.257  11.749  1.00 18.15     0.196 C 
ENDROOT
BRANCH  16  17
ATOM     17  CB  ASN A 133      30.092  31.240  11.460  1.00 18.27     0.126 C 
BRANCH  17  18
ATOM     18  CG  ASN A 133      28.757  30.578  11.313  1.00 18.94     0.276 C 
ATOM     19  OD1 ASN A 133      28.605  29.607  10.570  1.00 18.09    -0.269 OA
ATOM     20  ND2 ASN A 133      27.764  31.104  12.028  1.00 18.93    -0.107 N 
ENDBRANCH  17  18
ENDBRANCH  16  17
END_RES ASN A 133
