REMARK VINA RESULT:    -4.632      0.000      0.000
REMARK INTER + INTRA:         -10.924
REMARK INTER:                  -6.980
REMARK INTRA:                  -3.944
REMARK UNBOUND:                -4.262
REMARK SMILES Cc1cn(CC(=O)NCC(O)Cn2ccnc2[N+](=O)[O-])nn1
REMARK SMILES IDX 9 1 8 2 6 3 7 4 5 6 4 7 1 8 2 9 3 10 22 11 21 12 10 13 11 14
REMARK SMILES IDX 12 16 13 17 14 18 17 19 15 20 16 21 18 22 19 23 20 24
REMARK H PARENT 8 5 11 15
REMARK Flexibility Score: inf
ROOT
ATOM      1  C   UNL     1      33.792  35.000  14.236  1.00  0.00     0.151 C 
ENDROOT
BRANCH   1   2
ATOM      2  N   UNL     1      32.590  34.248  13.964  1.00  0.00    -0.352 N 
ATOM      3  C   UNL     1      31.263  34.709  14.167  1.00  0.00     0.241 C 
ATOM      4  O   UNL     1      31.076  35.862  14.610  1.00  0.00    -0.273 OA
ATOM      5  H   UNL     1      32.715  33.256  13.578  1.00  0.00     0.163 HD
BRANCH   3   6
ATOM      6  C   UNL     1      30.144  33.783  13.837  1.00  0.00     0.245 C 
BRANCH   6   7
ATOM      7  N   UNL     1      30.016  32.759  14.836  1.00  0.00    -0.243 N 
ATOM      8  C   UNL     1      28.389  30.310  17.003  1.00  0.00     0.070 C 
ATOM      9  C   UNL     1      29.271  31.235  16.230  1.00  0.00     0.080 A 
ATOM     10  C   UNL     1      28.905  32.137  15.268  1.00  0.00     0.134 A 
ATOM     11  N   UNL     1      30.605  31.327  16.365  1.00  0.00    -0.136 NA
ATOM     12  N   UNL     1      31.032  32.252  15.516  1.00  0.00    -0.067 NA
ENDBRANCH   6   7
ENDBRANCH   3   6
ENDBRANCH   1   2
BRANCH   1  13
ATOM     13  C   UNL     1      34.829  34.937  13.188  1.00  0.00     0.168 C 
BRANCH  13  14
ATOM     14  O   UNL     1      35.217  33.646  12.809  1.00  0.00    -0.388 OA
ATOM     15  H   UNL     1      34.779  32.954  13.325  1.00  0.00     0.211 HD
ENDBRANCH  13  14
BRANCH  13  16
ATOM     16  C   UNL     1      36.085  35.725  13.419  1.00  0.00     0.239 C 
BRANCH  16  17
ATOM     17  N   UNL     1      36.870  35.327  14.546  1.00  0.00    -0.227 N 
ATOM     18  C   UNL     1      36.695  35.783  15.833  1.00  0.00     0.204 A 
ATOM     19  C   UNL     1      37.917  34.494  14.499  1.00  0.00     0.434 A 
ATOM     20  C   UNL     1      37.680  35.199  16.587  1.00  0.00     0.245 A 
ATOM     21  N   UNL     1      38.408  34.431  15.791  1.00  0.00    -0.074 NA
BRANCH  19  22
ATOM     22  N   UNL     1      38.488  33.750  13.427  1.00  0.00    -0.047 N 
ATOM     23  O   UNL     1      39.516  34.085  12.841  1.00  0.00    -0.390 OA
ATOM     24  O   UNL     1      37.874  32.606  12.981  1.00  0.00    -0.390 OA
ENDBRANCH  19  22
ENDBRANCH  16  17
ENDBRANCH  13  16
ENDBRANCH   1  13
TORSDOF 8
BEGIN_RES LYS A 135
REMARK  4 active torsions:
REMARK  status: ('A' for Active; 'I' for Inactive)
REMARK    1  A    between atoms: CA   and  CB  
REMARK    2  A    between atoms: CB   and  CG  
REMARK    3  A    between atoms: CG   and  CD  
REMARK    4  A    between atoms: CD   and  CE  
ROOT
ATOM      1  CA  LYS A 135      33.193  34.663   9.290  1.00 25.02     0.186 C 
ENDROOT
BRANCH   1   2
ATOM      2  CB  LYS A 135      32.060  35.360  10.034  1.00 26.63     0.034 C 
BRANCH   2   3
ATOM      3  CG  LYS A 135      30.698  34.794   9.724  1.00 29.45     0.005 C 
BRANCH   3   4
ATOM      4  CD  LYS A 135      30.591  34.428   8.252  1.00 32.00     0.041 C 
BRANCH   4   5
ATOM      5  CE  LYS A 135      29.388  35.102   7.622  1.00 34.25     0.338 C 
ATOM      6  NZ  LYS A 135      28.121  34.639   8.254  1.00 35.99     0.618 N 
ENDBRANCH   4   5
ENDBRANCH   3   4
ENDBRANCH   2   3
ENDBRANCH   1   2
END_RES LYS A 135
BEGIN_RES TYR A 136
REMARK  2 active torsions:
REMARK  status: ('A' for Active; 'I' for Inactive)
REMARK    5  A    between atoms: CA   and  CB  
REMARK    6  A    between atoms: CB   and  CG  
ROOT
ATOM      7  CA  TYR A 136      36.583  36.399   8.994  1.00 26.14     0.191 C 
ENDROOT
BRANCH   7   8
ATOM      8  CB  TYR A 136      37.367  36.835  10.240  1.00 28.16     0.060 C 
BRANCH   8   9
ATOM      9  CG  TYR A 136      37.139  38.285  10.591  1.00 31.88    -0.020 A 
ATOM     10  CD2 TYR A 136      37.658  38.834  11.766  1.00 32.67    -0.002 A 
ATOM     11  CE2 TYR A 136      37.439  40.182  12.084  1.00 33.89     0.027 A 
ATOM     12  CZ  TYR A 136      36.692  40.986  11.219  1.00 34.34     0.131 A 
ATOM     13  OH  TYR A 136      36.468  42.325  11.510  1.00 35.14    -0.190 OA
ATOM     14  CE1 TYR A 136      36.168  40.456  10.049  1.00 35.01     0.027 A 
ATOM     15  CD1 TYR A 136      36.388  39.111   9.746  1.00 33.57    -0.002 A 
ENDBRANCH   8   9
ENDBRANCH   7   8
END_RES TYR A 136
BEGIN_RES ASN A 133
REMARK  2 active torsions:
REMARK  status: ('A' for Active; 'I' for Inactive)
REMARK    7  A    between atoms: CA   and  CB  
REMARK    8  A    between atoms: CB   and  CG  
ROOT
ATOM     16  CA  ASN A 133      31.225  30.257  11.749  1.00 18.15     0.196 C 
ENDROOT
BRANCH  16  17
ATOM     17  CB  ASN A 133      30.092  31.240  11.460  1.00 18.27     0.126 C 
BRANCH  17  18
ATOM     18  CG  ASN A 133      28.754  30.580  11.332  1.00 18.94     0.276 C 
ATOM     19  OD1 ASN A 133      28.600  29.580  10.628  1.00 18.09    -0.269 OA
ATOM     20  ND2 ASN A 133      27.760  31.141  12.020  1.00 18.93    -0.107 N 
ENDBRANCH  17  18
ENDBRANCH  16  17
END_RES ASN A 133
