REMARK VINA RESULT:    -4.104      1.911      5.185
REMARK INTER + INTRA:          -8.156
REMARK INTER:                  -4.945
REMARK INTRA:                  -3.211
REMARK UNBOUND:                -3.332
REMARK SMILES Cc1cn(CC(=O)Nc2ncccn2)nn1
REMARK SMILES IDX 6 1 7 2 8 3 5 5 4 6 1 7 2 8 3 9 16 10 15 11 9 12 10 13 14 14
REMARK SMILES IDX 11 15 13 16 12 17
REMARK H PARENT 8 4
REMARK Flexibility Score: inf
ROOT
ATOM      1  C   UNL     1      36.574  34.265  13.622  1.00  0.00     0.248 C 
ATOM      2  O   UNL     1      36.653  35.140  14.520  1.00  0.00    -0.272 OA
ATOM      3  N   UNL     1      35.303  34.122  12.972  1.00  0.00    -0.293 N 
ATOM      4  H   UNL     1      35.216  33.403  12.226  1.00  0.00     0.173 HD
ENDROOT
BRANCH   1   5
ATOM      5  C   UNL     1      37.675  33.398  13.205  1.00  0.00     0.246 C 
BRANCH   5   6
ATOM      6  N   UNL     1      38.796  34.165  12.696  1.00  0.00    -0.243 N 
ATOM      7  C   UNL     1      40.420  36.918  10.878  1.00  0.00     0.070 C 
ATOM      8  C   UNL     1      40.018  35.716  11.671  1.00  0.00     0.080 A 
ATOM      9  C   UNL     1      38.734  35.284  11.961  1.00  0.00     0.134 A 
ATOM     10  N   UNL     1      40.829  34.811  12.262  1.00  0.00    -0.136 NA
ATOM     11  N   UNL     1      40.085  33.911  12.857  1.00  0.00    -0.067 NA
ENDBRANCH   5   6
ENDBRANCH   1   5
BRANCH   3  12
ATOM     12  C   UNL     1      34.188  34.917  13.313  1.00  0.00     0.229 A 
ATOM     13  N   UNL     1      33.375  34.600  14.330  1.00  0.00    -0.221 NA
ATOM     14  N   UNL     1      33.929  36.021  12.604  1.00  0.00    -0.221 NA
ATOM     15  C   UNL     1      32.305  35.345  14.671  1.00  0.00     0.117 A 
ATOM     16  C   UNL     1      32.883  36.830  12.872  1.00  0.00     0.117 A 
ATOM     17  C   UNL     1      32.061  36.490  13.915  1.00  0.00     0.040 A 
ENDBRANCH   3  12
TORSDOF 3
BEGIN_RES LYS A 135
REMARK  4 active torsions:
REMARK  status: ('A' for Active; 'I' for Inactive)
REMARK    1  A    between atoms: CA   and  CB  
REMARK    2  A    between atoms: CB   and  CG  
REMARK    3  A    between atoms: CG   and  CD  
REMARK    4  A    between atoms: CD   and  CE  
ROOT
ATOM      1  CA  LYS A 135      33.193  34.663   9.290  1.00 25.02     0.186 C 
ENDROOT
BRANCH   1   2
ATOM      2  CB  LYS A 135      32.060  35.360  10.034  1.00 26.63     0.034 C 
BRANCH   2   3
ATOM      3  CG  LYS A 135      30.833  35.584   9.189  1.00 29.45     0.005 C 
BRANCH   3   4
ATOM      4  CD  LYS A 135      30.313  34.266   8.637  1.00 32.00     0.041 C 
BRANCH   4   5
ATOM      5  CE  LYS A 135      28.898  34.007   9.120  1.00 34.25     0.338 C 
ATOM      6  NZ  LYS A 135      27.901  34.690   8.249  1.00 35.99     0.618 N 
ENDBRANCH   4   5
ENDBRANCH   3   4
ENDBRANCH   2   3
ENDBRANCH   1   2
END_RES LYS A 135
BEGIN_RES TYR A 136
REMARK  2 active torsions:
REMARK  status: ('A' for Active; 'I' for Inactive)
REMARK    5  A    between atoms: CA   and  CB  
REMARK    6  A    between atoms: CB   and  CG  
ROOT
ATOM      7  CA  TYR A 136      36.583  36.399   8.994  1.00 26.14     0.191 C 
ENDROOT
BRANCH   7   8
ATOM      8  CB  TYR A 136      37.367  36.835  10.240  1.00 28.16     0.060 C 
BRANCH   8   9
ATOM      9  CG  TYR A 136      36.965  38.205  10.729  1.00 31.88    -0.020 A 
ATOM     10  CD2 TYR A 136      36.878  39.288   9.852  1.00 32.67    -0.002 A 
ATOM     11  CE2 TYR A 136      36.505  40.557  10.316  1.00 33.89     0.027 A 
ATOM     12  CZ  TYR A 136      36.217  40.744  11.670  1.00 34.34     0.131 A 
ATOM     13  OH  TYR A 136      35.839  41.990  12.151  1.00 35.14    -0.190 OA
ATOM     14  CE1 TYR A 136      36.300  39.678  12.556  1.00 35.01     0.027 A 
ATOM     15  CD1 TYR A 136      36.679  38.421  12.083  1.00 33.57    -0.002 A 
ENDBRANCH   8   9
ENDBRANCH   7   8
END_RES TYR A 136
BEGIN_RES ASN A 133
REMARK  2 active torsions:
REMARK  status: ('A' for Active; 'I' for Inactive)
REMARK    7  A    between atoms: CA   and  CB  
REMARK    8  A    between atoms: CB   and  CG  
ROOT
ATOM     16  CA  ASN A 133      31.225  30.257  11.749  1.00 18.15     0.196 C 
ENDROOT
BRANCH  16  17
ATOM     17  CB  ASN A 133      30.092  31.240  11.460  1.00 18.27     0.126 C 
BRANCH  17  18
ATOM     18  CG  ASN A 133      28.752  30.581  11.344  1.00 18.94     0.276 C 
ATOM     19  OD1 ASN A 133      28.585  29.599  10.619  1.00 18.09    -0.269 OA
ATOM     20  ND2 ASN A 133      27.772  31.123  12.066  1.00 18.93    -0.107 N 
ENDBRANCH  17  18
ENDBRANCH  16  17
END_RES ASN A 133
