REMARK VINA RESULT:    -3.598      5.874      8.400
REMARK INTER + INTRA:          -7.107
REMARK INTER:                  -4.296
REMARK INTRA:                  -2.811
REMARK UNBOUND:                -2.667
REMARK SMILES Cc1cn(CC(O)CO)nn1
REMARK SMILES IDX 6 1 5 2 4 3 1 4 2 5 3 6 11 7 10 8 7 9 8 11 9 12
REMARK H PARENT 7 10 9 13
REMARK Flexibility Score: inf
ROOT
ATOM      1  C   UNL     1      38.185  33.111  12.766  1.00  0.00     0.161 C 
ENDROOT
BRANCH   1   2
ATOM      2  C   UNL     1      38.965  34.316  13.236  1.00  0.00     0.180 C 
BRANCH   2   3
ATOM      3  N   UNL     1      38.672  34.643  14.616  1.00  0.00    -0.250 N 
ATOM      4  C   UNL     1      39.352  35.190  18.173  1.00  0.00     0.070 C 
ATOM      5  C   UNL     1      38.833  35.030  16.791  1.00  0.00     0.080 A 
ATOM      6  C   UNL     1      39.521  34.669  15.658  1.00  0.00     0.134 A 
ATOM      7  N   UNL     1      37.559  35.217  16.395  1.00  0.00    -0.136 NA
ATOM      8  N   UNL     1      37.492  34.981  15.107  1.00  0.00    -0.067 NA
ENDBRANCH   2   3
ENDBRANCH   1   2
BRANCH   1   9
ATOM      9  O   UNL     1      37.782  32.391  13.882  1.00  0.00    -0.389 OA
ATOM     10  H   UNL     1      37.519  32.931  14.643  1.00  0.00     0.211 HD
ENDBRANCH   1   9
BRANCH   1  11
ATOM     11  C   UNL     1      36.960  33.543  12.021  1.00  0.00     0.189 C 
BRANCH  11  12
ATOM     12  O   UNL     1      37.287  33.685  10.682  1.00  0.00    -0.394 OA
ATOM     13  H   UNL     1      37.490  32.814  10.255  1.00  0.00     0.210 HD
ENDBRANCH  11  12
ENDBRANCH   1  11
TORSDOF 5
BEGIN_RES LYS A 135
REMARK  4 active torsions:
REMARK  status: ('A' for Active; 'I' for Inactive)
REMARK    1  A    between atoms: CA   and  CB  
REMARK    2  A    between atoms: CB   and  CG  
REMARK    3  A    between atoms: CG   and  CD  
REMARK    4  A    between atoms: CD   and  CE  
ROOT
ATOM      1  CA  LYS A 135      33.193  34.663   9.290  1.00 25.02     0.186 C 
ENDROOT
BRANCH   1   2
ATOM      2  CB  LYS A 135      32.060  35.360  10.034  1.00 26.63     0.034 C 
BRANCH   2   3
ATOM      3  CG  LYS A 135      30.732  34.659   9.903  1.00 29.45     0.005 C 
BRANCH   3   4
ATOM      4  CD  LYS A 135      30.440  34.330   8.447  1.00 32.00     0.041 C 
BRANCH   4   5
ATOM      5  CE  LYS A 135      29.466  35.333   7.860  1.00 34.25     0.338 C 
ATOM      6  NZ  LYS A 135      28.065  34.834   7.946  1.00 35.99     0.618 N 
ENDBRANCH   4   5
ENDBRANCH   3   4
ENDBRANCH   2   3
ENDBRANCH   1   2
END_RES LYS A 135
BEGIN_RES TYR A 136
REMARK  2 active torsions:
REMARK  status: ('A' for Active; 'I' for Inactive)
REMARK    5  A    between atoms: CA   and  CB  
REMARK    6  A    between atoms: CB   and  CG  
ROOT
ATOM      7  CA  TYR A 136      36.583  36.399   8.994  1.00 26.14     0.191 C 
ENDROOT
BRANCH   7   8
ATOM      8  CB  TYR A 136      37.367  36.835  10.240  1.00 28.16     0.060 C 
BRANCH   8   9
ATOM      9  CG  TYR A 136      37.273  38.319  10.495  1.00 31.88    -0.020 A 
ATOM     10  CD2 TYR A 136      36.201  39.070  10.008  1.00 32.67    -0.002 A 
ATOM     11  CE2 TYR A 136      36.124  40.449  10.249  1.00 33.89     0.027 A 
ATOM     12  CZ  TYR A 136      37.129  41.082  10.983  1.00 34.34     0.131 A 
ATOM     13  OH  TYR A 136      37.070  42.445  11.239  1.00 35.14    -0.190 OA
ATOM     14  CE1 TYR A 136      38.202  40.352  11.473  1.00 35.01     0.027 A 
ATOM     15  CD1 TYR A 136      38.271  38.981  11.221  1.00 33.57    -0.002 A 
ENDBRANCH   8   9
ENDBRANCH   7   8
END_RES TYR A 136
BEGIN_RES ASN A 133
REMARK  2 active torsions:
REMARK  status: ('A' for Active; 'I' for Inactive)
REMARK    7  A    between atoms: CA   and  CB  
REMARK    8  A    between atoms: CB   and  CG  
ROOT
ATOM     16  CA  ASN A 133      31.225  30.257  11.749  1.00 18.15     0.196 C 
ENDROOT
BRANCH  16  17
ATOM     17  CB  ASN A 133      30.092  31.240  11.460  1.00 18.27     0.126 C 
BRANCH  17  18
ATOM     18  CG  ASN A 133      28.748  30.586  11.376  1.00 18.94     0.276 C 
ATOM     19  OD1 ASN A 133      27.810  30.961  12.082  1.00 18.09    -0.269 OA
ATOM     20  ND2 ASN A 133      28.640  29.585  10.502  1.00 18.93    -0.107 N 
ENDBRANCH  17  18
ENDBRANCH  16  17
END_RES ASN A 133
