REMARK VINA RESULT:    -3.508      3.054      4.670
REMARK INTER + INTRA:          -6.712
REMARK INTER:                  -3.677
REMARK INTRA:                  -3.035
REMARK UNBOUND:                -2.999
REMARK SMILES Cc1cn([C@@H]2C[C@H]3CC[C@@H](C2)N3C)nn1
REMARK SMILES IDX 5 1 11 2 10 3 12 4 13 5 7 6 6 7 8 8 9 9 4 10 1 11 2 12 3 13
REMARK SMILES IDX 15 14 14 15
REMARK H PARENT
REMARK Flexibility Score: inf
ROOT
ATOM      1  C   UNL     1      25.708  38.171  -2.183  1.00  0.00     0.112 C 
ATOM      2  C   UNL     1      26.880  37.270  -2.315  1.00  0.00     0.046 C 
ATOM      3  C   UNL     1      27.859  37.623  -3.363  1.00  0.00     0.058 C 
ATOM      4  N   UNL     1      27.287  38.170  -4.570  1.00  0.00    -0.300 NA
ATOM      5  C   UNL     1      28.312  38.393  -5.538  1.00  0.00     0.105 C 
ATOM      6  C   UNL     1      26.727  39.429  -4.054  1.00  0.00     0.058 C 
ATOM      7  C   UNL     1      25.417  39.008  -3.389  1.00  0.00     0.046 C 
ATOM      8  C   UNL     1      27.715  39.949  -3.054  1.00  0.00     0.021 C 
ATOM      9  C   UNL     1      28.711  38.806  -2.886  1.00  0.00     0.021 C 
ENDROOT
BRANCH   1  10
ATOM     10  N   UNL     1      24.560  37.372  -1.794  1.00  0.00    -0.249 N 
ATOM     11  C   UNL     1      21.409  36.559  -0.137  1.00  0.00     0.070 C 
ATOM     12  C   UNL     1      22.658  36.605  -0.912  1.00  0.00     0.080 A 
ATOM     13  C   UNL     1      23.523  37.692  -0.998  1.00  0.00     0.134 A 
ATOM     14  N   UNL     1      23.227  35.658  -1.681  1.00  0.00    -0.136 NA
ATOM     15  N   UNL     1      24.335  36.124  -2.186  1.00  0.00    -0.067 NA
ENDBRANCH   1  10
TORSDOF 1
BEGIN_RES LYS A 135
REMARK  4 active torsions:
REMARK  status: ('A' for Active; 'I' for Inactive)
REMARK    1  A    between atoms: CA   and  CB  
REMARK    2  A    between atoms: CB   and  CG  
REMARK    3  A    between atoms: CG   and  CD  
REMARK    4  A    between atoms: CD   and  CE  
ROOT
ATOM      1  CA  LYS A 135      33.193  34.663   9.290  1.00 25.02     0.186 C 
ENDROOT
BRANCH   1   2
ATOM      2  CB  LYS A 135      32.060  35.360  10.034  1.00 26.63     0.034 C 
BRANCH   2   3
ATOM      3  CG  LYS A 135      30.841  35.604   9.183  1.00 29.45     0.005 C 
BRANCH   3   4
ATOM      4  CD  LYS A 135      30.280  34.290   8.659  1.00 32.00     0.041 C 
BRANCH   4   5
ATOM      5  CE  LYS A 135      28.764  34.323   8.653  1.00 34.25     0.338 C 
ATOM      6  NZ  LYS A 135      28.253  35.624   9.167  1.00 35.99     0.618 N 
ENDBRANCH   4   5
ENDBRANCH   3   4
ENDBRANCH   2   3
ENDBRANCH   1   2
END_RES LYS A 135
BEGIN_RES TYR A 136
REMARK  2 active torsions:
REMARK  status: ('A' for Active; 'I' for Inactive)
REMARK    5  A    between atoms: CA   and  CB  
REMARK    6  A    between atoms: CB   and  CG  
ROOT
ATOM      7  CA  TYR A 136      36.583  36.399   8.994  1.00 26.14     0.191 C 
ENDROOT
BRANCH   7   8
ATOM      8  CB  TYR A 136      37.367  36.835  10.240  1.00 28.16     0.060 C 
BRANCH   8   9
ATOM      9  CG  TYR A 136      37.274  38.319  10.494  1.00 31.88    -0.020 A 
ATOM     10  CD2 TYR A 136      38.189  38.970  11.325  1.00 32.67    -0.002 A 
ATOM     11  CE2 TYR A 136      38.092  40.349  11.556  1.00 33.89     0.027 A 
ATOM     12  CZ  TYR A 136      37.070  41.084  10.950  1.00 34.34     0.131 A 
ATOM     13  OH  TYR A 136      36.960  42.451  11.159  1.00 35.14    -0.190 OA
ATOM     14  CE1 TYR A 136      36.152  40.454  10.123  1.00 35.01     0.027 A 
ATOM     15  CD1 TYR A 136      36.254  39.079   9.905  1.00 33.57    -0.002 A 
ENDBRANCH   8   9
ENDBRANCH   7   8
END_RES TYR A 136
BEGIN_RES ASN A 133
REMARK  2 active torsions:
REMARK  status: ('A' for Active; 'I' for Inactive)
REMARK    7  A    between atoms: CA   and  CB  
REMARK    8  A    between atoms: CB   and  CG  
ROOT
ATOM     16  CA  ASN A 133      31.225  30.257  11.749  1.00 18.15     0.196 C 
ENDROOT
BRANCH  16  17
ATOM     17  CB  ASN A 133      30.092  31.240  11.460  1.00 18.27     0.126 C 
BRANCH  17  18
ATOM     18  CG  ASN A 133      28.755  30.579  11.329  1.00 18.94     0.276 C 
ATOM     19  OD1 ASN A 133      28.602  29.583  10.620  1.00 18.09    -0.269 OA
ATOM     20  ND2 ASN A 133      27.760  31.136  12.019  1.00 18.93    -0.107 N 
ENDBRANCH  17  18
ENDBRANCH  16  17
END_RES ASN A 133
