REMARK VINA RESULT:    -4.383      8.392     13.155
REMARK INTER + INTRA:          -7.720
REMARK INTER:                  -4.713
REMARK INTRA:                  -3.007
REMARK UNBOUND:                -3.081
REMARK SMILES Cc1cn(-c2cccc(Cl)c2)nn1
REMARK SMILES IDX 5 1 6 2 7 3 8 4 9 5 10 6 11 7 4 8 1 9 2 10 3 11 13 12 12 13
REMARK H PARENT
REMARK Flexibility Score: inf
ROOT
ATOM      1  C   UNL     1      35.243  35.220  13.705  1.00  0.00     0.068 A 
ATOM      2  C   UNL     1      35.820  35.780  14.814  1.00  0.00     0.028 A 
ATOM      3  C   UNL     1      37.076  35.406  15.228  1.00  0.00     0.004 A 
ATOM      4  C   UNL     1      37.752  34.443  14.502  1.00  0.00     0.020 A 
ATOM      5  C   UNL     1      37.210  33.852  13.380  1.00  0.00     0.043 A 
ATOM      6  Cl  UNL     1      38.092  32.624  12.463  1.00  0.00    -0.084 Cl
ATOM      7  C   UNL     1      35.948  34.263  13.005  1.00  0.00     0.049 A 
ENDROOT
BRANCH   1   8
ATOM      8  N   UNL     1      33.927  35.601  13.256  1.00  0.00    -0.220 N 
ATOM      9  C   UNL     1      30.325  35.620  12.974  1.00  0.00     0.070 C 
ATOM     10  C   UNL     1      31.784  35.786  12.928  1.00  0.00     0.080 A 
ATOM     11  C   UNL     1      32.748  35.108  13.625  1.00  0.00     0.140 A 
ATOM     12  N   UNL     1      32.445  36.668  12.158  1.00  0.00    -0.135 NA
ATOM     13  N   UNL     1      33.740  36.554  12.358  1.00  0.00    -0.062 NA
ENDBRANCH   1   8
TORSDOF 1
BEGIN_RES LYS A 135
REMARK  4 active torsions:
REMARK  status: ('A' for Active; 'I' for Inactive)
REMARK    1  A    between atoms: CA   and  CB  
REMARK    2  A    between atoms: CB   and  CG  
REMARK    3  A    between atoms: CG   and  CD  
REMARK    4  A    between atoms: CD   and  CE  
ROOT
ATOM      1  CA  LYS A 135      33.193  34.663   9.290  1.00 25.02     0.186 C 
ENDROOT
BRANCH   1   2
ATOM      2  CB  LYS A 135      32.060  35.360  10.034  1.00 26.63     0.034 C 
BRANCH   2   3
ATOM      3  CG  LYS A 135      30.794  35.481   9.226  1.00 29.45     0.005 C 
BRANCH   3   4
ATOM      4  CD  LYS A 135      30.189  34.110   8.966  1.00 32.00     0.041 C 
BRANCH   4   5
ATOM      5  CE  LYS A 135      28.677  34.200   8.890  1.00 34.25     0.338 C 
ATOM      6  NZ  LYS A 135      28.247  35.038   7.736  1.00 35.99     0.618 N 
ENDBRANCH   4   5
ENDBRANCH   3   4
ENDBRANCH   2   3
ENDBRANCH   1   2
END_RES LYS A 135
BEGIN_RES TYR A 136
REMARK  2 active torsions:
REMARK  status: ('A' for Active; 'I' for Inactive)
REMARK    5  A    between atoms: CA   and  CB  
REMARK    6  A    between atoms: CB   and  CG  
ROOT
ATOM      7  CA  TYR A 136      36.583  36.399   8.994  1.00 26.14     0.191 C 
ENDROOT
BRANCH   7   8
ATOM      8  CB  TYR A 136      37.367  36.835  10.240  1.00 28.16     0.060 C 
BRANCH   8   9
ATOM      9  CG  TYR A 136      36.719  37.994  10.957  1.00 31.88    -0.020 A 
ATOM     10  CD2 TYR A 136      36.950  38.224  12.315  1.00 32.67    -0.002 A 
ATOM     11  CE2 TYR A 136      36.342  39.303  12.972  1.00 33.89     0.027 A 
ATOM     12  CZ  TYR A 136      35.495  40.159  12.264  1.00 34.34     0.131 A 
ATOM     13  OH  TYR A 136      34.888  41.237  12.892  1.00 35.14    -0.190 OA
ATOM     14  CE1 TYR A 136      35.254  39.944  10.914  1.00 35.01     0.027 A 
ATOM     15  CD1 TYR A 136      35.860  38.863  10.272  1.00 33.57    -0.002 A 
ENDBRANCH   8   9
ENDBRANCH   7   8
END_RES TYR A 136
BEGIN_RES ASN A 133
REMARK  2 active torsions:
REMARK  status: ('A' for Active; 'I' for Inactive)
REMARK    7  A    between atoms: CA   and  CB  
REMARK    8  A    between atoms: CB   and  CG  
ROOT
ATOM     16  CA  ASN A 133      31.225  30.257  11.749  1.00 18.15     0.196 C 
ENDROOT
BRANCH  16  17
ATOM     17  CB  ASN A 133      30.092  31.240  11.460  1.00 18.27     0.126 C 
BRANCH  17  18
ATOM     18  CG  ASN A 133      28.752  30.581  11.346  1.00 18.94     0.276 C 
ATOM     19  OD1 ASN A 133      28.583  29.601  10.618  1.00 18.09    -0.269 OA
ATOM     20  ND2 ASN A 133      27.774  31.122  12.071  1.00 18.93    -0.107 N 
ENDBRANCH  17  18
ENDBRANCH  16  17
END_RES ASN A 133
