REMARK VINA RESULT:    -3.133      9.068     11.208
REMARK INTER + INTRA:          -7.249
REMARK INTER:                  -3.719
REMARK INTRA:                  -3.530
REMARK UNBOUND:                -3.384
REMARK SMILES COCC(C(N)=O)n1cc(C)nn1
REMARK SMILES IDX 3 1 4 2 8 3 11 4 10 5 9 6 12 7 13 8 5 9 7 10 6 11 2 14 1 15
REMARK H PARENT 6 12 6 13
REMARK Flexibility Score: inf
ROOT
ATOM      1  C   UNL     1      22.806  35.491  -3.687  1.00  0.00     0.197 C 
ENDROOT
BRANCH   1   2
ATOM      2  C   UNL     1      22.645  35.673  -2.182  1.00  0.00     0.223 C 
BRANCH   2   3
ATOM      3  N   UNL     1      22.559  34.399  -1.508  1.00  0.00    -0.237 N 
ATOM      4  C   UNL     1      21.996  30.836  -0.988  1.00  0.00     0.070 C 
ATOM      5  C   UNL     1      22.290  32.302  -0.933  1.00  0.00     0.080 A 
ATOM      6  C   UNL     1      22.216  33.190  -1.976  1.00  0.00     0.135 A 
ATOM      7  N   UNL     1      22.678  33.022   0.140  1.00  0.00    -0.136 NA
ATOM      8  N   UNL     1      22.837  34.268  -0.208  1.00  0.00    -0.066 NA
ENDBRANCH   2   3
BRANCH   2   9
ATOM      9  C   UNL     1      23.749  36.505  -1.698  1.00  0.00     0.244 C 
ATOM     10  O   UNL     1      23.491  37.565  -1.073  1.00  0.00    -0.273 OA
ATOM     11  N   UNL     1      25.102  36.146  -1.916  1.00  0.00    -0.368 N 
ATOM     12  H   UNL     1      25.419  35.173  -2.134  1.00  0.00     0.159 HD
ATOM     13  H   UNL     1      25.888  36.856  -1.869  1.00  0.00     0.159 HD
ENDBRANCH   2   9
ENDBRANCH   1   2
BRANCH   1  14
ATOM     14  O   UNL     1      22.229  36.590  -4.315  1.00  0.00    -0.382 OA
ATOM     15  C   UNL     1      22.965  36.896  -5.472  1.00  0.00     0.195 C 
ENDBRANCH   1  14
TORSDOF 4
BEGIN_RES LYS A 135
REMARK  4 active torsions:
REMARK  status: ('A' for Active; 'I' for Inactive)
REMARK    1  A    between atoms: CA   and  CB  
REMARK    2  A    between atoms: CB   and  CG  
REMARK    3  A    between atoms: CG   and  CD  
REMARK    4  A    between atoms: CD   and  CE  
ROOT
ATOM      1  CA  LYS A 135      33.193  34.663   9.290  1.00 25.02     0.186 C 
ENDROOT
BRANCH   1   2
ATOM      2  CB  LYS A 135      32.060  35.360  10.034  1.00 26.63     0.034 C 
BRANCH   2   3
ATOM      3  CG  LYS A 135      30.730  34.667   9.892  1.00 29.45     0.005 C 
BRANCH   3   4
ATOM      4  CD  LYS A 135      30.348  34.533   8.425  1.00 32.00     0.041 C 
BRANCH   4   5
ATOM      5  CE  LYS A 135      28.841  34.564   8.262  1.00 34.25     0.338 C 
ATOM      6  NZ  LYS A 135      28.165  33.867   9.391  1.00 35.99     0.618 N 
ENDBRANCH   4   5
ENDBRANCH   3   4
ENDBRANCH   2   3
ENDBRANCH   1   2
END_RES LYS A 135
BEGIN_RES TYR A 136
REMARK  2 active torsions:
REMARK  status: ('A' for Active; 'I' for Inactive)
REMARK    5  A    between atoms: CA   and  CB  
REMARK    6  A    between atoms: CB   and  CG  
ROOT
ATOM      7  CA  TYR A 136      36.583  36.399   8.994  1.00 26.14     0.191 C 
ENDROOT
BRANCH   7   8
ATOM      8  CB  TYR A 136      37.367  36.835  10.240  1.00 28.16     0.060 C 
BRANCH   8   9
ATOM      9  CG  TYR A 136      37.220  38.308  10.532  1.00 31.88    -0.020 A 
ATOM     10  CD2 TYR A 136      36.447  39.134   9.713  1.00 32.67    -0.002 A 
ATOM     11  CE2 TYR A 136      36.318  40.501   9.992  1.00 33.89     0.027 A 
ATOM     12  CZ  TYR A 136      36.969  41.047  11.101  1.00 34.34     0.131 A 
ATOM     13  OH  TYR A 136      36.849  42.397  11.401  1.00 35.14    -0.190 OA
ATOM     14  CE1 TYR A 136      37.741  40.242  11.925  1.00 35.01     0.027 A 
ATOM     15  CD1 TYR A 136      37.867  38.883  11.633  1.00 33.57    -0.002 A 
ENDBRANCH   8   9
ENDBRANCH   7   8
END_RES TYR A 136
BEGIN_RES ASN A 133
REMARK  2 active torsions:
REMARK  status: ('A' for Active; 'I' for Inactive)
REMARK    7  A    between atoms: CA   and  CB  
REMARK    8  A    between atoms: CB   and  CG  
ROOT
ATOM     16  CA  ASN A 133      31.225  30.257  11.749  1.00 18.15     0.196 C 
ENDROOT
BRANCH  16  17
ATOM     17  CB  ASN A 133      30.092  31.240  11.460  1.00 18.27     0.126 C 
BRANCH  17  18
ATOM     18  CG  ASN A 133      28.751  30.582  11.351  1.00 18.94     0.276 C 
ATOM     19  OD1 ASN A 133      28.580  29.598  10.629  1.00 18.09    -0.269 OA
ATOM     20  ND2 ASN A 133      27.774  31.127  12.075  1.00 18.93    -0.107 N 
ENDBRANCH  17  18
ENDBRANCH  16  17
END_RES ASN A 133
