REMARK VINA RESULT:    -3.300      7.900     13.261
REMARK INTER + INTRA:          -7.181
REMARK INTER:                  -4.153
REMARK INTRA:                  -3.028
REMARK UNBOUND:                -3.399
REMARK SMILES Cc1cn(C(C)(C)CO)nn1
REMARK SMILES IDX 5 1 6 2 7 3 4 4 1 5 2 6 3 7 11 8 10 9 8 10 9 11
REMARK H PARENT 9 12
REMARK Flexibility Score: inf
ROOT
ATOM      1  C   UNL     1      22.055  35.627  -1.141  1.00  0.00     0.082 C 
ATOM      2  C   UNL     1      23.339  36.367  -1.335  1.00  0.00     0.039 C 
ATOM      3  C   UNL     1      21.341  35.521  -2.481  1.00  0.00     0.039 C 
ENDROOT
BRANCH   1   4
ATOM      4  N   UNL     1      22.274  34.310  -0.581  1.00  0.00    -0.244 N 
ATOM      5  C   UNL     1      22.196  30.612  -0.687  1.00  0.00     0.070 C 
ATOM      6  C   UNL     1      22.326  32.079  -0.405  1.00  0.00     0.080 A 
ATOM      7  C   UNL     1      22.003  33.149  -1.214  1.00  0.00     0.135 A 
ATOM      8  N   UNL     1      22.797  32.642   0.721  1.00  0.00    -0.136 NA
ATOM      9  N   UNL     1      22.762  33.970   0.608  1.00  0.00    -0.067 NA
ENDBRANCH   1   4
BRANCH   1  10
ATOM     10  C   UNL     1      21.143  36.389  -0.191  1.00  0.00     0.186 C 
BRANCH  10  11
ATOM     11  O   UNL     1      21.857  37.002   0.822  1.00  0.00    -0.394 OA
ATOM     12  H   UNL     1      21.808  37.978   0.663  1.00  0.00     0.210 HD
ENDBRANCH  10  11
ENDBRANCH   1  10
TORSDOF 3
BEGIN_RES LYS A 135
REMARK  4 active torsions:
REMARK  status: ('A' for Active; 'I' for Inactive)
REMARK    1  A    between atoms: CA   and  CB  
REMARK    2  A    between atoms: CB   and  CG  
REMARK    3  A    between atoms: CG   and  CD  
REMARK    4  A    between atoms: CD   and  CE  
ROOT
ATOM      1  CA  LYS A 135      33.193  34.663   9.290  1.00 25.02     0.186 C 
ENDROOT
BRANCH   1   2
ATOM      2  CB  LYS A 135      32.060  35.360  10.034  1.00 26.63     0.034 C 
BRANCH   2   3
ATOM      3  CG  LYS A 135      30.801  35.502   9.218  1.00 29.45     0.005 C 
BRANCH   3   4
ATOM      4  CD  LYS A 135      30.132  34.151   9.024  1.00 32.00     0.041 C 
BRANCH   4   5
ATOM      5  CE  LYS A 135      28.666  34.327   8.678  1.00 34.25     0.338 C 
ATOM      6  NZ  LYS A 135      27.793  33.653   9.679  1.00 35.99     0.618 N 
ENDBRANCH   4   5
ENDBRANCH   3   4
ENDBRANCH   2   3
ENDBRANCH   1   2
END_RES LYS A 135
BEGIN_RES TYR A 136
REMARK  2 active torsions:
REMARK  status: ('A' for Active; 'I' for Inactive)
REMARK    5  A    between atoms: CA   and  CB  
REMARK    6  A    between atoms: CB   and  CG  
ROOT
ATOM      7  CA  TYR A 136      36.583  36.399   8.994  1.00 26.14     0.191 C 
ENDROOT
BRANCH   7   8
ATOM      8  CB  TYR A 136      37.367  36.835  10.240  1.00 28.16     0.060 C 
BRANCH   8   9
ATOM      9  CG  TYR A 136      37.181  38.298  10.560  1.00 31.88    -0.020 A 
ATOM     10  CD2 TYR A 136      36.933  39.233   9.552  1.00 32.67    -0.002 A 
ATOM     11  CE2 TYR A 136      36.764  40.590   9.860  1.00 33.89     0.027 A 
ATOM     12  CZ  TYR A 136      36.844  41.015  11.188  1.00 34.34     0.131 A 
ATOM     13  OH  TYR A 136      36.672  42.352  11.517  1.00 35.14    -0.190 OA
ATOM     14  CE1 TYR A 136      37.091  40.100  12.202  1.00 35.01     0.027 A 
ATOM     15  CD1 TYR A 136      37.264  38.752  11.882  1.00 33.57    -0.002 A 
ENDBRANCH   8   9
ENDBRANCH   7   8
END_RES TYR A 136
BEGIN_RES ASN A 133
REMARK  2 active torsions:
REMARK  status: ('A' for Active; 'I' for Inactive)
REMARK    7  A    between atoms: CA   and  CB  
REMARK    8  A    between atoms: CB   and  CG  
ROOT
ATOM     16  CA  ASN A 133      31.225  30.257  11.749  1.00 18.15     0.196 C 
ENDROOT
BRANCH  16  17
ATOM     17  CB  ASN A 133      30.092  31.240  11.460  1.00 18.27     0.126 C 
BRANCH  17  18
ATOM     18  CG  ASN A 133      28.749  30.585  11.370  1.00 18.94     0.276 C 
ATOM     19  OD1 ASN A 133      27.808  30.959  12.072  1.00 18.09    -0.269 OA
ATOM     20  ND2 ASN A 133      28.645  29.586  10.494  1.00 18.93    -0.107 N 
ENDBRANCH  17  18
ENDBRANCH  16  17
END_RES ASN A 133
