REMARK VINA RESULT:    -3.457      1.844      3.307
REMARK INTER + INTRA:          -7.361
REMARK INTER:                  -4.003
REMARK INTRA:                  -3.359
REMARK UNBOUND:                -3.399
REMARK SMILES Cc1cn(C(C)(C)CO)nn1
REMARK SMILES IDX 5 1 6 2 7 3 4 4 1 5 2 6 3 7 11 8 10 9 8 10 9 11
REMARK H PARENT 9 12
REMARK Flexibility Score: inf
ROOT
ATOM      1  C   UNL     1      37.815  34.303  13.115  1.00  0.00     0.082 C 
ATOM      2  C   UNL     1      37.919  33.814  14.523  1.00  0.00     0.039 C 
ATOM      3  C   UNL     1      36.856  35.484  13.073  1.00  0.00     0.039 C 
ENDROOT
BRANCH   1   4
ATOM      4  N   UNL     1      39.106  34.683  12.582  1.00  0.00    -0.244 N 
ATOM      5  C   UNL     1      42.761  34.283  12.160  1.00  0.00     0.070 C 
ATOM      6  C   UNL     1      41.307  34.650  12.174  1.00  0.00     0.080 A 
ATOM      7  C   UNL     1      40.263  34.034  12.833  1.00  0.00     0.135 A 
ATOM      8  N   UNL     1      40.732  35.679  11.527  1.00  0.00    -0.136 NA
ATOM      9  N   UNL     1      39.423  35.691  11.776  1.00  0.00    -0.067 NA
ENDBRANCH   1   4
BRANCH   1  10
ATOM     10  C   UNL     1      37.245  33.213  12.218  1.00  0.00     0.186 C 
BRANCH  10  11
ATOM     11  O   UNL     1      37.301  33.569  10.883  1.00  0.00    -0.394 OA
ATOM     12  H   UNL     1      37.513  32.748  10.372  1.00  0.00     0.210 HD
ENDBRANCH  10  11
ENDBRANCH   1  10
TORSDOF 3
BEGIN_RES LYS A 135
REMARK  4 active torsions:
REMARK  status: ('A' for Active; 'I' for Inactive)
REMARK    1  A    between atoms: CA   and  CB  
REMARK    2  A    between atoms: CB   and  CG  
REMARK    3  A    between atoms: CG   and  CD  
REMARK    4  A    between atoms: CD   and  CE  
ROOT
ATOM      1  CA  LYS A 135      33.193  34.663   9.290  1.00 25.02     0.186 C 
ENDROOT
BRANCH   1   2
ATOM      2  CB  LYS A 135      32.060  35.360  10.034  1.00 26.63     0.034 C 
BRANCH   2   3
ATOM      3  CG  LYS A 135      30.833  35.586   9.189  1.00 29.45     0.005 C 
BRANCH   3   4
ATOM      4  CD  LYS A 135      30.288  34.264   8.670  1.00 32.00     0.041 C 
BRANCH   4   5
ATOM      5  CE  LYS A 135      28.887  34.022   9.198  1.00 34.25     0.338 C 
ATOM      6  NZ  LYS A 135      27.865  34.650   8.315  1.00 35.99     0.618 N 
ENDBRANCH   4   5
ENDBRANCH   3   4
ENDBRANCH   2   3
ENDBRANCH   1   2
END_RES LYS A 135
BEGIN_RES TYR A 136
REMARK  2 active torsions:
REMARK  status: ('A' for Active; 'I' for Inactive)
REMARK    5  A    between atoms: CA   and  CB  
REMARK    6  A    between atoms: CB   and  CG  
ROOT
ATOM      7  CA  TYR A 136      36.583  36.399   8.994  1.00 26.14     0.191 C 
ENDROOT
BRANCH   7   8
ATOM      8  CB  TYR A 136      37.367  36.835  10.240  1.00 28.16     0.060 C 
BRANCH   8   9
ATOM      9  CG  TYR A 136      37.249  38.315  10.511  1.00 31.88    -0.020 A 
ATOM     10  CD2 TYR A 136      37.695  38.867  11.714  1.00 32.67    -0.002 A 
ATOM     11  CE2 TYR A 136      37.579  40.242  11.957  1.00 33.89     0.027 A 
ATOM     12  CZ  TYR A 136      37.011  41.073  10.988  1.00 34.34     0.131 A 
ATOM     13  OH  TYR A 136      36.893  42.439  11.204  1.00 35.14    -0.190 OA
ATOM     14  CE1 TYR A 136      36.562  40.541   9.788  1.00 35.01     0.027 A 
ATOM     15  CD1 TYR A 136      36.677  39.169   9.560  1.00 33.57    -0.002 A 
ENDBRANCH   8   9
ENDBRANCH   7   8
END_RES TYR A 136
BEGIN_RES ASN A 133
REMARK  2 active torsions:
REMARK  status: ('A' for Active; 'I' for Inactive)
REMARK    7  A    between atoms: CA   and  CB  
REMARK    8  A    between atoms: CB   and  CG  
ROOT
ATOM     16  CA  ASN A 133      31.225  30.257  11.749  1.00 18.15     0.196 C 
ENDROOT
BRANCH  16  17
ATOM     17  CB  ASN A 133      30.092  31.240  11.460  1.00 18.27     0.126 C 
BRANCH  17  18
ATOM     18  CG  ASN A 133      28.752  30.582  11.347  1.00 18.94     0.276 C 
ATOM     19  OD1 ASN A 133      28.584  29.596  10.626  1.00 18.09    -0.269 OA
ATOM     20  ND2 ASN A 133      27.772  31.128  12.065  1.00 18.93    -0.107 N 
ENDBRANCH  17  18
ENDBRANCH  16  17
END_RES ASN A 133
