REMARK VINA RESULT:    -3.933      8.456     13.883
REMARK INTER + INTRA:          -7.162
REMARK INTER:                  -3.861
REMARK INTRA:                  -3.301
REMARK UNBOUND:                -2.999
REMARK SMILES Cc1cn([C@@H]2C[C@H]3CC[C@@H](C2)N3C)nn1
REMARK SMILES IDX 5 1 11 2 10 3 12 4 13 5 7 6 6 7 8 8 9 9 4 10 1 11 2 12 3 13
REMARK SMILES IDX 15 14 14 15
REMARK H PARENT
REMARK Flexibility Score: inf
ROOT
ATOM      1  C   UNL     1      29.504  31.807  17.594  1.00  0.00     0.112 C 
ATOM      2  C   UNL     1      30.454  31.238  16.606  1.00  0.00     0.046 C 
ATOM      3  C   UNL     1      30.744  32.073  15.423  1.00  0.00     0.058 C 
ATOM      4  N   UNL     1      29.620  32.829  14.922  1.00  0.00    -0.300 NA
ATOM      5  C   UNL     1      29.993  33.529  13.735  1.00  0.00     0.105 C 
ATOM      6  C   UNL     1      29.387  33.741  16.054  1.00  0.00     0.058 C 
ATOM      7  C   UNL     1      28.617  32.889  17.064  1.00  0.00     0.046 C 
ATOM      8  C   UNL     1      30.741  34.125  16.569  1.00  0.00     0.021 C 
ATOM      9  C   UNL     1      31.700  33.205  15.820  1.00  0.00     0.021 C 
ENDROOT
BRANCH   1  10
ATOM     10  N   UNL     1      28.736  30.717  18.169  1.00  0.00    -0.249 N 
ATOM     11  C   UNL     1      26.100  28.203  18.426  1.00  0.00     0.070 C 
ATOM     12  C   UNL     1      27.251  29.104  18.588  1.00  0.00     0.080 A 
ATOM     13  C   UNL     1      27.644  30.093  17.691  1.00  0.00     0.134 A 
ATOM     14  N   UNL     1      28.148  29.180  19.589  1.00  0.00    -0.136 NA
ATOM     15  N   UNL     1      29.005  30.126  19.326  1.00  0.00    -0.067 NA
ENDBRANCH   1  10
TORSDOF 1
BEGIN_RES LYS A 135
REMARK  4 active torsions:
REMARK  status: ('A' for Active; 'I' for Inactive)
REMARK    1  A    between atoms: CA   and  CB  
REMARK    2  A    between atoms: CB   and  CG  
REMARK    3  A    between atoms: CG   and  CD  
REMARK    4  A    between atoms: CD   and  CE  
ROOT
ATOM      1  CA  LYS A 135      33.193  34.663   9.290  1.00 25.02     0.186 C 
ENDROOT
BRANCH   1   2
ATOM      2  CB  LYS A 135      32.060  35.360  10.034  1.00 26.63     0.034 C 
BRANCH   2   3
ATOM      3  CG  LYS A 135      30.837  35.595   9.186  1.00 29.45     0.005 C 
BRANCH   3   4
ATOM      4  CD  LYS A 135      30.244  34.274   8.720  1.00 32.00     0.041 C 
BRANCH   4   5
ATOM      5  CE  LYS A 135      28.745  34.401   8.528  1.00 34.25     0.338 C 
ATOM      6  NZ  LYS A 135      28.004  33.712   9.621  1.00 35.99     0.618 N 
ENDBRANCH   4   5
ENDBRANCH   3   4
ENDBRANCH   2   3
ENDBRANCH   1   2
END_RES LYS A 135
BEGIN_RES TYR A 136
REMARK  2 active torsions:
REMARK  status: ('A' for Active; 'I' for Inactive)
REMARK    5  A    between atoms: CA   and  CB  
REMARK    6  A    between atoms: CB   and  CG  
ROOT
ATOM      7  CA  TYR A 136      36.583  36.399   8.994  1.00 26.14     0.191 C 
ENDROOT
BRANCH   7   8
ATOM      8  CB  TYR A 136      37.367  36.835  10.240  1.00 28.16     0.060 C 
BRANCH   8   9
ATOM      9  CG  TYR A 136      37.199  38.303  10.547  1.00 31.88    -0.020 A 
ATOM     10  CD2 TYR A 136      37.653  38.846  11.751  1.00 32.67    -0.002 A 
ATOM     11  CE2 TYR A 136      37.491  40.211  12.027  1.00 33.89     0.027 A 
ATOM     12  CZ  TYR A 136      36.868  41.039  11.090  1.00 34.34     0.131 A 
ATOM     13  OH  TYR A 136      36.703  42.394  11.339  1.00 35.14    -0.190 OA
ATOM     14  CE1 TYR A 136      36.410  40.516   9.889  1.00 35.01     0.027 A 
ATOM     15  CD1 TYR A 136      36.572  39.154   9.628  1.00 33.57    -0.002 A 
ENDBRANCH   8   9
ENDBRANCH   7   8
END_RES TYR A 136
BEGIN_RES ASN A 133
REMARK  2 active torsions:
REMARK  status: ('A' for Active; 'I' for Inactive)
REMARK    7  A    between atoms: CA   and  CB  
REMARK    8  A    between atoms: CB   and  CG  
ROOT
ATOM     16  CA  ASN A 133      31.225  30.257  11.749  1.00 18.15     0.196 C 
ENDROOT
BRANCH  16  17
ATOM     17  CB  ASN A 133      30.092  31.240  11.460  1.00 18.27     0.126 C 
BRANCH  17  18
ATOM     18  CG  ASN A 133      28.749  30.584  11.364  1.00 18.94     0.276 C 
ATOM     19  OD1 ASN A 133      28.562  29.619  10.621  1.00 18.09    -0.269 OA
ATOM     20  ND2 ASN A 133      27.789  31.109  12.124  1.00 18.93    -0.107 N 
ENDBRANCH  17  18
ENDBRANCH  16  17
END_RES ASN A 133
