REMARK VINA RESULT:    -6.585      2.740      4.667
REMARK INTER + INTRA:          -9.131
REMARK INTER:                  -5.839
REMARK INTRA:                  -3.293
REMARK UNBOUND:                -1.391
REMARK SMILES Cc1cn(C(c2ccccc2)c2ccccc2)nn1
REMARK SMILES IDX 5 1 4 2 1 3 2 4 3 5 19 6 18 7 6 8 7 9 11 10 8 11 10 12 9 13
REMARK SMILES IDX 12 14 13 15 17 16 14 17 16 18 15 19
REMARK H PARENT
REMARK Flexibility Score: inf
ROOT
ATOM      1  C   UNL     1      37.711  35.807  15.363  1.00  0.00     0.169 C 
ENDROOT
BRANCH   1   2
ATOM      2  N   UNL     1      38.625  35.281  16.375  1.00  0.00    -0.240 N 
ATOM      3  C   UNL     1      41.713  34.985  18.307  1.00  0.00     0.070 C 
ATOM      4  C   UNL     1      40.392  34.919  17.673  1.00  0.00     0.080 A 
ATOM      5  C   UNL     1      39.880  35.688  16.634  1.00  0.00     0.135 A 
ATOM      6  N   UNL     1      39.402  34.068  17.998  1.00  0.00    -0.136 NA
ATOM      7  N   UNL     1      38.365  34.299  17.217  1.00  0.00    -0.066 NA
ENDBRANCH   1   2
BRANCH   1   8
ATOM      8  C   UNL     1      37.485  34.872  14.241  1.00  0.00    -0.019 A 
ATOM      9  C   UNL     1      36.284  34.736  13.598  1.00  0.00     0.006 A 
ATOM     10  C   UNL     1      38.529  34.074  13.780  1.00  0.00     0.006 A 
ATOM     11  C   UNL     1      36.147  33.834  12.537  1.00  0.00     0.000 A 
ATOM     12  C   UNL     1      38.396  33.188  12.741  1.00  0.00     0.000 A 
ATOM     13  C   UNL     1      37.193  33.058  12.104  1.00  0.00     0.000 A 
ENDBRANCH   1   8
BRANCH   1  14
ATOM     14  C   UNL     1      38.066  37.170  14.961  1.00  0.00    -0.019 A 
ATOM     15  C   UNL     1      38.951  37.481  13.953  1.00  0.00     0.006 A 
ATOM     16  C   UNL     1      37.483  38.247  15.602  1.00  0.00     0.006 A 
ATOM     17  C   UNL     1      39.222  38.774  13.624  1.00  0.00     0.000 A 
ATOM     18  C   UNL     1      37.739  39.564  15.288  1.00  0.00     0.000 A 
ATOM     19  C   UNL     1      38.622  39.818  14.284  1.00  0.00     0.000 A 
ENDBRANCH   1  14
TORSDOF 3
BEGIN_RES LYS A 135
REMARK  4 active torsions:
REMARK  status: ('A' for Active; 'I' for Inactive)
REMARK    1  A    between atoms: CA   and  CB  
REMARK    2  A    between atoms: CB   and  CG  
REMARK    3  A    between atoms: CG   and  CD  
REMARK    4  A    between atoms: CD   and  CE  
ROOT
ATOM      1  CA  LYS A 135      33.193  34.663   9.290  1.00 25.02     0.186 C 
ENDROOT
BRANCH   1   2
ATOM      2  CB  LYS A 135      32.060  35.360  10.034  1.00 26.63     0.034 C 
BRANCH   2   3
ATOM      3  CG  LYS A 135      30.915  35.767   9.143  1.00 29.45     0.005 C 
BRANCH   3   4
ATOM      4  CD  LYS A 135      30.447  34.592   8.299  1.00 32.00     0.041 C 
BRANCH   4   5
ATOM      5  CE  LYS A 135      28.956  34.684   8.037  1.00 34.25     0.338 C 
ATOM      6  NZ  LYS A 135      28.676  35.456   6.795  1.00 35.99     0.618 N 
ENDBRANCH   4   5
ENDBRANCH   3   4
ENDBRANCH   2   3
ENDBRANCH   1   2
END_RES LYS A 135
BEGIN_RES TYR A 136
REMARK  2 active torsions:
REMARK  status: ('A' for Active; 'I' for Inactive)
REMARK    5  A    between atoms: CA   and  CB  
REMARK    6  A    between atoms: CB   and  CG  
ROOT
ATOM      7  CA  TYR A 136      36.583  36.399   8.994  1.00 26.14     0.191 C 
ENDROOT
BRANCH   7   8
ATOM      8  CB  TYR A 136      37.367  36.835  10.240  1.00 28.16     0.060 C 
BRANCH   8   9
ATOM      9  CG  TYR A 136      36.753  38.033  10.922  1.00 31.88    -0.020 A 
ATOM     10  CD2 TYR A 136      37.102  39.333  10.552  1.00 32.67    -0.002 A 
ATOM     11  CE2 TYR A 136      36.527  40.439  11.193  1.00 33.89     0.027 A 
ATOM     12  CZ  TYR A 136      35.595  40.241  12.215  1.00 34.34     0.131 A 
ATOM     13  OH  TYR A 136      35.007  41.322  12.859  1.00 35.14    -0.190 OA
ATOM     14  CE1 TYR A 136      35.237  38.956  12.596  1.00 35.01     0.027 A 
ATOM     15  CD1 TYR A 136      35.821  37.863  11.954  1.00 33.57    -0.002 A 
ENDBRANCH   8   9
ENDBRANCH   7   8
END_RES TYR A 136
BEGIN_RES ASN A 133
REMARK  2 active torsions:
REMARK  status: ('A' for Active; 'I' for Inactive)
REMARK    7  A    between atoms: CA   and  CB  
REMARK    8  A    between atoms: CB   and  CG  
ROOT
ATOM     16  CA  ASN A 133      31.225  30.257  11.749  1.00 18.15     0.196 C 
ENDROOT
BRANCH  16  17
ATOM     17  CB  ASN A 133      30.092  31.240  11.460  1.00 18.27     0.126 C 
BRANCH  17  18
ATOM     18  CG  ASN A 133      28.751  30.583  11.355  1.00 18.94     0.276 C 
ATOM     19  OD1 ASN A 133      28.575  29.604  10.627  1.00 18.09    -0.269 OA
ATOM     20  ND2 ASN A 133      27.778  31.122  12.089  1.00 18.93    -0.107 N 
ENDBRANCH  17  18
ENDBRANCH  16  17
END_RES ASN A 133
