REMARK VINA RESULT:    -4.706      4.660      8.650
REMARK INTER + INTRA:          -8.883
REMARK INTER:                  -6.701
REMARK INTRA:                  -2.182
REMARK UNBOUND:                -3.214
REMARK SMILES Cc1cn(-c2cccc(C=CC(=O)O)c2)nn1
REMARK SMILES IDX 10 1 11 2 9 3 5 4 15 5 6 6 7 7 8 8 4 9 1 10 2 11 3 12 17 13
REMARK SMILES IDX 16 14 12 15 13 16 14 17
REMARK H PARENT 14 18
REMARK Flexibility Score: inf
ROOT
ATOM      1  C   UNL     1      28.354  35.582   6.463  1.00  0.00     0.015 C 
ATOM      2  C   UNL     1      28.868  36.422   5.676  1.00  0.00     0.094 C 
ENDROOT
BRANCH   1   3
ATOM      3  C   UNL     1      27.272  35.619   7.393  1.00  0.00    -0.023 A 
ATOM      4  C   UNL     1      25.307  36.564   8.438  1.00  0.00     0.067 A 
ATOM      5  C   UNL     1      26.281  36.555   7.431  1.00  0.00     0.036 A 
ATOM      6  C   UNL     1      25.363  35.595   9.409  1.00  0.00     0.028 A 
ATOM      7  C   UNL     1      26.354  34.637   9.387  1.00  0.00     0.003 A 
ATOM      8  C   UNL     1      27.298  34.635   8.406  1.00  0.00     0.008 A 
BRANCH   4   9
ATOM      9  N   UNL     1      24.293  37.561   8.442  1.00  0.00    -0.220 N 
ATOM     10  C   UNL     1      22.702  40.734   7.440  1.00  0.00     0.070 C 
ATOM     11  C   UNL     1      23.134  39.420   7.995  1.00  0.00     0.080 A 
ATOM     12  C   UNL     1      24.287  38.712   7.724  1.00  0.00     0.140 A 
ATOM     13  N   UNL     1      22.465  38.656   8.888  1.00  0.00    -0.135 NA
ATOM     14  N   UNL     1      23.161  37.558   9.145  1.00  0.00    -0.062 NA
ENDBRANCH   4   9
ENDBRANCH   1   3
BRANCH   2  15
ATOM     15  C   UNL     1      28.656  37.776   5.325  1.00  0.00     0.328 C 
ATOM     16  O   UNL     1      29.333  38.777   5.631  1.00  0.00    -0.247 OA
BRANCH  15  17
ATOM     17  O   UNL     1      27.516  38.098   4.503  1.00  0.00    -0.478 OA
ATOM     18  H   UNL     1      27.270  39.089   4.474  1.00  0.00     0.297 HD
ENDBRANCH  15  17
ENDBRANCH   2  15
TORSDOF 4
BEGIN_RES LYS A 135
REMARK  4 active torsions:
REMARK  status: ('A' for Active; 'I' for Inactive)
REMARK    1  A    between atoms: CA   and  CB  
REMARK    2  A    between atoms: CB   and  CG  
REMARK    3  A    between atoms: CG   and  CD  
REMARK    4  A    between atoms: CD   and  CE  
ROOT
ATOM      1  CA  LYS A 135      33.193  34.663   9.290  1.00 25.02     0.186 C 
ENDROOT
BRANCH   1   2
ATOM      2  CB  LYS A 135      32.060  35.360  10.034  1.00 26.63     0.034 C 
BRANCH   2   3
ATOM      3  CG  LYS A 135      30.822  35.558   9.198  1.00 29.45     0.005 C 
BRANCH   3   4
ATOM      4  CD  LYS A 135      29.949  36.657   9.783  1.00 32.00     0.041 C 
BRANCH   4   5
ATOM      5  CE  LYS A 135      29.992  37.895   8.908  1.00 34.25     0.338 C 
ATOM      6  NZ  LYS A 135      29.035  38.928   9.393  1.00 35.99     0.618 N 
ENDBRANCH   4   5
ENDBRANCH   3   4
ENDBRANCH   2   3
ENDBRANCH   1   2
END_RES LYS A 135
BEGIN_RES TYR A 136
REMARK  2 active torsions:
REMARK  status: ('A' for Active; 'I' for Inactive)
REMARK    5  A    between atoms: CA   and  CB  
REMARK    6  A    between atoms: CB   and  CG  
ROOT
ATOM      7  CA  TYR A 136      36.583  36.399   8.994  1.00 26.14     0.191 C 
ENDROOT
BRANCH   7   8
ATOM      8  CB  TYR A 136      37.367  36.835  10.240  1.00 28.16     0.060 C 
BRANCH   8   9
ATOM      9  CG  TYR A 136      37.259  38.317  10.505  1.00 31.88    -0.020 A 
ATOM     10  CD2 TYR A 136      36.401  39.124   9.755  1.00 32.67    -0.002 A 
ATOM     11  CE2 TYR A 136      36.309  40.500  10.007  1.00 33.89     0.027 A 
ATOM     12  CZ  TYR A 136      37.083  41.073  11.020  1.00 34.34     0.131 A 
ATOM     13  OH  TYR A 136      37.003  42.431  11.292  1.00 35.14    -0.190 OA
ATOM     14  CE1 TYR A 136      37.941  40.285  11.774  1.00 35.01     0.027 A 
ATOM     15  CD1 TYR A 136      38.029  38.918  11.508  1.00 33.57    -0.002 A 
ENDBRANCH   8   9
ENDBRANCH   7   8
END_RES TYR A 136
BEGIN_RES ASN A 133
REMARK  2 active torsions:
REMARK  status: ('A' for Active; 'I' for Inactive)
REMARK    7  A    between atoms: CA   and  CB  
REMARK    8  A    between atoms: CB   and  CG  
ROOT
ATOM     16  CA  ASN A 133      31.225  30.257  11.749  1.00 18.15     0.196 C 
ENDROOT
BRANCH  16  17
ATOM     17  CB  ASN A 133      30.092  31.240  11.460  1.00 18.27     0.126 C 
BRANCH  17  18
ATOM     18  CG  ASN A 133      28.752  30.581  11.345  1.00 18.94     0.276 C 
ATOM     19  OD1 ASN A 133      28.583  29.603  10.615  1.00 18.09    -0.269 OA
ATOM     20  ND2 ASN A 133      27.774  31.119  12.072  1.00 18.93    -0.107 N 
ENDBRANCH  17  18
ENDBRANCH  16  17
END_RES ASN A 133
