REMARK VINA RESULT:    -3.227      9.329     16.248
REMARK INTER + INTRA:          -7.245
REMARK INTER:                  -3.741
REMARK INTRA:                  -3.505
REMARK UNBOUND:                -3.264
REMARK SMILES Cc1cn(CCNS(C)(=O)=O)nn1
REMARK SMILES IDX 6 1 5 2 4 3 1 4 2 5 3 6 13 7 12 8 7 9 8 11 10 12 11 13 9 14
REMARK H PARENT 7 10
REMARK Flexibility Score: inf
ROOT
ATOM      1  C   UNL     1      39.296  34.915  14.948  1.00  0.00     0.122 C 
ENDROOT
BRANCH   1   2
ATOM      2  C   UNL     1      40.140  34.583  16.183  1.00  0.00     0.162 C 
BRANCH   2   3
ATOM      3  N   UNL     1      39.192  34.389  17.289  1.00  0.00    -0.251 N 
ATOM      4  C   UNL     1      37.842  32.681  20.225  1.00  0.00     0.070 C 
ATOM      5  C   UNL     1      38.169  33.564  19.068  1.00  0.00     0.080 A 
ATOM      6  C   UNL     1      39.223  33.402  18.198  1.00  0.00     0.134 A 
ATOM      7  N   UNL     1      37.524  34.664  18.647  1.00  0.00    -0.136 NA
ATOM      8  N   UNL     1      38.149  35.139  17.587  1.00  0.00    -0.067 NA
ENDBRANCH   2   3
ENDBRANCH   1   2
BRANCH   1   9
ATOM      9  N   UNL     1      38.399  33.823  14.701  1.00  0.00    -0.214 NA
ATOM     10  H   UNL     1      37.609  33.807  15.355  1.00  0.00     0.141 HD
BRANCH   9  11
ATOM     11  S   UNL     1      37.905  33.800  13.058  1.00  0.00     0.208 S 
ATOM     12  O   UNL     1      36.410  33.831  12.958  1.00  0.00    -0.213 OA
ATOM     13  O   UNL     1      38.408  32.514  12.427  1.00  0.00    -0.213 OA
ATOM     14  C   UNL     1      38.647  35.145  12.205  1.00  0.00     0.176 C 
ENDBRANCH   9  11
ENDBRANCH   1   9
TORSDOF 4
BEGIN_RES LYS A 135
REMARK  4 active torsions:
REMARK  status: ('A' for Active; 'I' for Inactive)
REMARK    1  A    between atoms: CA   and  CB  
REMARK    2  A    between atoms: CB   and  CG  
REMARK    3  A    between atoms: CG   and  CD  
REMARK    4  A    between atoms: CD   and  CE  
ROOT
ATOM      1  CA  LYS A 135      33.193  34.663   9.290  1.00 25.02     0.186 C 
ENDROOT
BRANCH   1   2
ATOM      2  CB  LYS A 135      32.060  35.360  10.034  1.00 26.63     0.034 C 
BRANCH   2   3
ATOM      3  CG  LYS A 135      30.810  35.526   9.209  1.00 29.45     0.005 C 
BRANCH   3   4
ATOM      4  CD  LYS A 135      30.210  34.171   8.865  1.00 32.00     0.041 C 
BRANCH   4   5
ATOM      5  CE  LYS A 135      28.721  34.298   8.607  1.00 34.25     0.338 C 
ATOM      6  NZ  LYS A 135      27.931  33.809   9.771  1.00 35.99     0.618 N 
ENDBRANCH   4   5
ENDBRANCH   3   4
ENDBRANCH   2   3
ENDBRANCH   1   2
END_RES LYS A 135
BEGIN_RES TYR A 136
REMARK  2 active torsions:
REMARK  status: ('A' for Active; 'I' for Inactive)
REMARK    5  A    between atoms: CA   and  CB  
REMARK    6  A    between atoms: CB   and  CG  
ROOT
ATOM      7  CA  TYR A 136      36.583  36.399   8.994  1.00 26.14     0.191 C 
ENDROOT
BRANCH   7   8
ATOM      8  CB  TYR A 136      37.367  36.835  10.240  1.00 28.16     0.060 C 
BRANCH   8   9
ATOM      9  CG  TYR A 136      37.271  38.319  10.496  1.00 31.88    -0.020 A 
ATOM     10  CD2 TYR A 136      38.133  38.955  11.392  1.00 32.67    -0.002 A 
ATOM     11  CE2 TYR A 136      38.034  40.334  11.625  1.00 33.89     0.027 A 
ATOM     12  CZ  TYR A 136      37.064  41.083  10.954  1.00 34.34     0.131 A 
ATOM     13  OH  TYR A 136      36.952  42.450  11.163  1.00 35.14    -0.190 OA
ATOM     14  CE1 TYR A 136      36.199  40.467  10.061  1.00 35.01     0.027 A 
ATOM     15  CD1 TYR A 136      36.303  39.092   9.843  1.00 33.57    -0.002 A 
ENDBRANCH   8   9
ENDBRANCH   7   8
END_RES TYR A 136
BEGIN_RES ASN A 133
REMARK  2 active torsions:
REMARK  status: ('A' for Active; 'I' for Inactive)
REMARK    7  A    between atoms: CA   and  CB  
REMARK    8  A    between atoms: CB   and  CG  
ROOT
ATOM     16  CA  ASN A 133      31.225  30.257  11.749  1.00 18.15     0.196 C 
ENDROOT
BRANCH  16  17
ATOM     17  CB  ASN A 133      30.092  31.240  11.460  1.00 18.27     0.126 C 
BRANCH  17  18
ATOM     18  CG  ASN A 133      28.750  30.583  11.361  1.00 18.94     0.276 C 
ATOM     19  OD1 ASN A 133      28.567  29.612  10.624  1.00 18.09    -0.269 OA
ATOM     20  ND2 ASN A 133      27.785  31.115  12.110  1.00 18.93    -0.107 N 
ENDBRANCH  17  18
ENDBRANCH  16  17
END_RES ASN A 133
