REMARK VINA RESULT:    -4.025      0.000      0.000
REMARK INTER + INTRA:          -7.598
REMARK INTER:                  -4.660
REMARK INTRA:                  -2.938
REMARK UNBOUND:                -3.103
REMARK SMILES Cc1cn(-c2ncccc2C#N)nn1
REMARK SMILES IDX 5 1 6 2 7 3 8 4 9 5 10 6 4 7 1 8 2 9 3 10 14 11 13 12 11 13
REMARK SMILES IDX 12 14
REMARK H PARENT
REMARK Flexibility Score: inf
ROOT
ATOM      1  C   UNL     1      35.770  34.599  13.354  1.00  0.00     0.173 A 
ATOM      2  N   UNL     1      36.161  33.751  12.386  1.00  0.00    -0.236 NA
ATOM      3  C   UNL     1      37.402  33.254  12.293  1.00  0.00     0.113 A 
ATOM      4  C   UNL     1      38.379  33.592  13.211  1.00  0.00     0.022 A 
ATOM      5  C   UNL     1      38.000  34.465  14.218  1.00  0.00     0.025 A 
ATOM      6  C   UNL     1      36.705  34.965  14.289  1.00  0.00     0.097 A 
ENDROOT
BRANCH   1   7
ATOM      7  N   UNL     1      34.431  35.098  13.404  1.00  0.00    -0.201 N 
ATOM      8  C   UNL     1      31.550  37.225  12.534  1.00  0.00     0.070 C 
ATOM      9  C   UNL     1      32.553  36.255  13.048  1.00  0.00     0.080 A 
ATOM     10  C   UNL     1      33.877  36.097  12.689  1.00  0.00     0.142 A 
ATOM     11  N   UNL     1      32.345  35.317  13.998  1.00  0.00    -0.135 NA
ATOM     12  N   UNL     1      33.471  34.642  14.192  1.00  0.00    -0.061 NA
ENDBRANCH   1   7
BRANCH   6  13
ATOM     13  C   UNL     1      36.305  35.870  15.331  1.00  0.00     0.103 C 
ATOM     14  N   UNL     1      35.975  36.592  16.149  1.00  0.00    -0.192 NA
ENDBRANCH   6  13
TORSDOF 2
BEGIN_RES LYS A 135
REMARK  4 active torsions:
REMARK  status: ('A' for Active; 'I' for Inactive)
REMARK    1  A    between atoms: CA   and  CB  
REMARK    2  A    between atoms: CB   and  CG  
REMARK    3  A    between atoms: CG   and  CD  
REMARK    4  A    between atoms: CD   and  CE  
ROOT
ATOM      1  CA  LYS A 135      33.193  34.663   9.290  1.00 25.02     0.186 C 
ENDROOT
BRANCH   1   2
ATOM      2  CB  LYS A 135      32.060  35.360  10.034  1.00 26.63     0.034 C 
BRANCH   2   3
ATOM      3  CG  LYS A 135      30.725  34.681   9.871  1.00 29.45     0.005 C 
BRANCH   3   4
ATOM      4  CD  LYS A 135      30.441  34.400   8.404  1.00 32.00     0.041 C 
BRANCH   4   5
ATOM      5  CE  LYS A 135      29.009  34.762   8.060  1.00 34.25     0.338 C 
ATOM      6  NZ  LYS A 135      28.939  35.513   6.776  1.00 35.99     0.618 N 
ENDBRANCH   4   5
ENDBRANCH   3   4
ENDBRANCH   2   3
ENDBRANCH   1   2
END_RES LYS A 135
BEGIN_RES TYR A 136
REMARK  2 active torsions:
REMARK  status: ('A' for Active; 'I' for Inactive)
REMARK    5  A    between atoms: CA   and  CB  
REMARK    6  A    between atoms: CB   and  CG  
ROOT
ATOM      7  CA  TYR A 136      36.583  36.399   8.994  1.00 26.14     0.191 C 
ENDROOT
BRANCH   7   8
ATOM      8  CB  TYR A 136      37.367  36.835  10.240  1.00 28.16     0.060 C 
BRANCH   8   9
ATOM      9  CG  TYR A 136      36.661  37.916  11.021  1.00 31.88    -0.020 A 
ATOM     10  CD2 TYR A 136      35.740  38.767  10.406  1.00 32.67    -0.002 A 
ATOM     11  CE2 TYR A 136      35.091  39.770  11.140  1.00 33.89     0.027 A 
ATOM     12  CZ  TYR A 136      35.367  39.922  12.501  1.00 34.34     0.131 A 
ATOM     13  OH  TYR A 136      34.731  40.903  13.249  1.00 35.14    -0.190 OA
ATOM     14  CE1 TYR A 136      36.280  39.086  13.127  1.00 35.01     0.027 A 
ATOM     15  CD1 TYR A 136      36.925  38.096  12.385  1.00 33.57    -0.002 A 
ENDBRANCH   8   9
ENDBRANCH   7   8
END_RES TYR A 136
BEGIN_RES ASN A 133
REMARK  2 active torsions:
REMARK  status: ('A' for Active; 'I' for Inactive)
REMARK    7  A    between atoms: CA   and  CB  
REMARK    8  A    between atoms: CB   and  CG  
ROOT
ATOM     16  CA  ASN A 133      31.225  30.257  11.749  1.00 18.15     0.196 C 
ENDROOT
BRANCH  16  17
ATOM     17  CB  ASN A 133      30.092  31.240  11.460  1.00 18.27     0.126 C 
BRANCH  17  18
ATOM     18  CG  ASN A 133      28.755  30.579  11.329  1.00 18.94     0.276 C 
ATOM     19  OD1 ASN A 133      28.587  29.624  10.568  1.00 18.09    -0.269 OA
ATOM     20  ND2 ASN A 133      27.777  31.089  12.076  1.00 18.93    -0.107 N 
ENDBRANCH  17  18
ENDBRANCH  16  17
END_RES ASN A 133
