REMARK VINA RESULT:    -3.225      4.084      8.283
REMARK INTER + INTRA:          -6.705
REMARK INTER:                  -4.561
REMARK INTRA:                  -2.143
REMARK UNBOUND:                -3.103
REMARK SMILES Cc1cn(-c2ncccc2C#N)nn1
REMARK SMILES IDX 5 1 6 2 7 3 8 4 9 5 10 6 4 7 1 8 2 9 3 10 14 11 13 12 11 13
REMARK SMILES IDX 12 14
REMARK H PARENT
REMARK Flexibility Score: inf
ROOT
ATOM      1  C   UNL     1      26.194  36.965   8.219  1.00  0.00     0.173 A 
ATOM      2  N   UNL     1      25.770  36.311   9.315  1.00  0.00    -0.236 NA
ATOM      3  C   UNL     1      26.113  35.047   9.602  1.00  0.00     0.113 A 
ATOM      4  C   UNL     1      26.943  34.323   8.767  1.00  0.00     0.022 A 
ATOM      5  C   UNL     1      27.392  34.976   7.631  1.00  0.00     0.025 A 
ATOM      6  C   UNL     1      27.020  36.288   7.358  1.00  0.00     0.097 A 
ENDROOT
BRANCH   1   7
ATOM      7  N   UNL     1      25.796  38.315   7.963  1.00  0.00    -0.201 N 
ATOM      8  C   UNL     1      23.605  41.080   6.902  1.00  0.00     0.070 C 
ATOM      9  C   UNL     1      24.658  40.147   7.383  1.00  0.00     0.080 A 
ATOM     10  C   UNL     1      24.626  38.769   7.473  1.00  0.00     0.142 A 
ATOM     11  N   UNL     1      25.884  40.489   7.836  1.00  0.00    -0.135 NA
ATOM     12  N   UNL     1      26.541  39.387   8.175  1.00  0.00    -0.061 NA
ENDBRANCH   1   7
BRANCH   6  13
ATOM     13  C   UNL     1      27.483  36.970   6.182  1.00  0.00     0.103 C 
ATOM     14  N   UNL     1      27.835  37.509   5.241  1.00  0.00    -0.192 NA
ENDBRANCH   6  13
TORSDOF 2
BEGIN_RES LYS A 135
REMARK  4 active torsions:
REMARK  status: ('A' for Active; 'I' for Inactive)
REMARK    1  A    between atoms: CA   and  CB  
REMARK    2  A    between atoms: CB   and  CG  
REMARK    3  A    between atoms: CG   and  CD  
REMARK    4  A    between atoms: CD   and  CE  
ROOT
ATOM      1  CA  LYS A 135      33.193  34.663   9.290  1.00 25.02     0.186 C 
ENDROOT
BRANCH   1   2
ATOM      2  CB  LYS A 135      32.060  35.360  10.034  1.00 26.63     0.034 C 
BRANCH   2   3
ATOM      3  CG  LYS A 135      30.757  35.369   9.276  1.00 29.45     0.005 C 
BRANCH   3   4
ATOM      4  CD  LYS A 135      30.399  36.782   8.842  1.00 32.00     0.041 C 
BRANCH   4   5
ATOM      5  CE  LYS A 135      30.033  37.632  10.043  1.00 34.25     0.338 C 
ATOM      6  NZ  LYS A 135      28.906  37.026  10.806  1.00 35.99     0.618 N 
ENDBRANCH   4   5
ENDBRANCH   3   4
ENDBRANCH   2   3
ENDBRANCH   1   2
END_RES LYS A 135
BEGIN_RES TYR A 136
REMARK  2 active torsions:
REMARK  status: ('A' for Active; 'I' for Inactive)
REMARK    5  A    between atoms: CA   and  CB  
REMARK    6  A    between atoms: CB   and  CG  
ROOT
ATOM      7  CA  TYR A 136      36.583  36.399   8.994  1.00 26.14     0.191 C 
ENDROOT
BRANCH   7   8
ATOM      8  CB  TYR A 136      37.367  36.835  10.240  1.00 28.16     0.060 C 
BRANCH   8   9
ATOM      9  CG  TYR A 136      37.163  38.292  10.573  1.00 31.88    -0.020 A 
ATOM     10  CD2 TYR A 136      37.837  39.296   9.873  1.00 32.67    -0.002 A 
ATOM     11  CE2 TYR A 136      37.642  40.646  10.192  1.00 33.89     0.027 A 
ATOM     12  CZ  TYR A 136      36.764  40.997  11.221  1.00 34.34     0.131 A 
ATOM     13  OH  TYR A 136      36.550  42.328  11.549  1.00 35.14    -0.190 OA
ATOM     14  CE1 TYR A 136      36.087  40.013  11.927  1.00 35.01     0.027 A 
ATOM     15  CD1 TYR A 136      36.295  38.671  11.605  1.00 33.57    -0.002 A 
ENDBRANCH   8   9
ENDBRANCH   7   8
END_RES TYR A 136
BEGIN_RES ASN A 133
REMARK  2 active torsions:
REMARK  status: ('A' for Active; 'I' for Inactive)
REMARK    7  A    between atoms: CA   and  CB  
REMARK    8  A    between atoms: CB   and  CG  
ROOT
ATOM     16  CA  ASN A 133      31.225  30.257  11.749  1.00 18.15     0.196 C 
ENDROOT
BRANCH  16  17
ATOM     17  CB  ASN A 133      30.092  31.240  11.460  1.00 18.27     0.126 C 
BRANCH  17  18
ATOM     18  CG  ASN A 133      28.752  30.581  11.344  1.00 18.94     0.276 C 
ATOM     19  OD1 ASN A 133      28.581  29.608  10.608  1.00 18.09    -0.269 OA
ATOM     20  ND2 ASN A 133      27.776  31.113  12.078  1.00 18.93    -0.107 N 
ENDBRANCH  17  18
ENDBRANCH  16  17
END_RES ASN A 133
