REMARK VINA RESULT:    -2.467      5.745      7.132
REMARK INTER + INTRA:          -5.801
REMARK INTER:                  -2.511
REMARK INTRA:                  -3.290
REMARK UNBOUND:                -2.973
REMARK SMILES Cc1cn(CCO)nn1
REMARK SMILES IDX 5 1 4 2 1 3 2 4 3 5 9 6 8 7 6 8 7 9
REMARK H PARENT 7 10
REMARK Flexibility Score: inf
ROOT
ATOM      1  C   UNL     1      39.930  38.857   4.135  1.00  0.00     0.174 C 
ENDROOT
BRANCH   1   2
ATOM      2  N   UNL     1      38.743  38.477   3.396  1.00  0.00    -0.250 N 
ATOM      3  C   UNL     1      35.144  38.766   2.798  1.00  0.00     0.070 C 
ATOM      4  C   UNL     1      36.600  38.463   2.826  1.00  0.00     0.080 A 
ATOM      5  C   UNL     1      37.538  39.000   3.682  1.00  0.00     0.134 A 
ATOM      6  N   UNL     1      37.310  37.622   2.049  1.00  0.00    -0.136 NA
ATOM      7  N   UNL     1      38.581  37.648   2.408  1.00  0.00    -0.067 NA
ENDBRANCH   1   2
BRANCH   1   8
ATOM      8  C   UNL     1      40.688  37.654   4.644  1.00  0.00     0.179 C 
BRANCH   8   9
ATOM      9  O   UNL     1      39.797  36.601   4.920  1.00  0.00    -0.394 OA
ATOM     10  H   UNL     1      39.808  36.455   5.900  1.00  0.00     0.210 HD
ENDBRANCH   8   9
ENDBRANCH   1   8
TORSDOF 3
BEGIN_RES LYS A 135
REMARK  4 active torsions:
REMARK  status: ('A' for Active; 'I' for Inactive)
REMARK    1  A    between atoms: CA   and  CB  
REMARK    2  A    between atoms: CB   and  CG  
REMARK    3  A    between atoms: CG   and  CD  
REMARK    4  A    between atoms: CD   and  CE  
ROOT
ATOM      1  CA  LYS A 135      33.193  34.663   9.290  1.00 25.02     0.186 C 
ENDROOT
BRANCH   1   2
ATOM      2  CB  LYS A 135      32.060  35.360  10.034  1.00 26.63     0.034 C 
BRANCH   2   3
ATOM      3  CG  LYS A 135      30.726  34.678   9.875  1.00 29.45     0.005 C 
BRANCH   3   4
ATOM      4  CD  LYS A 135      30.303  34.659   8.414  1.00 32.00     0.041 C 
BRANCH   4   5
ATOM      5  CE  LYS A 135      28.791  34.633   8.298  1.00 34.25     0.338 C 
ATOM      6  NZ  LYS A 135      28.179  33.878   9.425  1.00 35.99     0.618 N 
ENDBRANCH   4   5
ENDBRANCH   3   4
ENDBRANCH   2   3
ENDBRANCH   1   2
END_RES LYS A 135
BEGIN_RES TYR A 136
REMARK  2 active torsions:
REMARK  status: ('A' for Active; 'I' for Inactive)
REMARK    5  A    between atoms: CA   and  CB  
REMARK    6  A    between atoms: CB   and  CG  
ROOT
ATOM      7  CA  TYR A 136      36.583  36.399   8.994  1.00 26.14     0.191 C 
ENDROOT
BRANCH   7   8
ATOM      8  CB  TYR A 136      37.367  36.835  10.240  1.00 28.16     0.060 C 
BRANCH   8   9
ATOM      9  CG  TYR A 136      37.283  38.321  10.488  1.00 31.88    -0.020 A 
ATOM     10  CD2 TYR A 136      38.378  39.156  10.252  1.00 32.67    -0.002 A 
ATOM     11  CE2 TYR A 136      38.290  40.535  10.486  1.00 33.89     0.027 A 
ATOM     12  CZ  TYR A 136      37.097  41.084  10.962  1.00 34.34     0.131 A 
ATOM     13  OH  TYR A 136      36.985  42.447  11.195  1.00 35.14    -0.190 OA
ATOM     14  CE1 TYR A 136      36.000  40.269  11.203  1.00 35.01     0.027 A 
ATOM     15  CD1 TYR A 136      36.101  38.896  10.972  1.00 33.57    -0.002 A 
ENDBRANCH   8   9
ENDBRANCH   7   8
END_RES TYR A 136
BEGIN_RES ASN A 133
REMARK  2 active torsions:
REMARK  status: ('A' for Active; 'I' for Inactive)
REMARK    7  A    between atoms: CA   and  CB  
REMARK    8  A    between atoms: CB   and  CG  
ROOT
ATOM     16  CA  ASN A 133      31.225  30.257  11.749  1.00 18.15     0.196 C 
ENDROOT
BRANCH  16  17
ATOM     17  CB  ASN A 133      30.092  31.240  11.460  1.00 18.27     0.126 C 
BRANCH  17  18
ATOM     18  CG  ASN A 133      28.758  30.577  11.305  1.00 18.94     0.276 C 
ATOM     19  OD1 ASN A 133      28.607  29.617  10.548  1.00 18.09    -0.269 OA
ATOM     20  ND2 ASN A 133      27.765  31.090  12.029  1.00 18.93    -0.107 N 
ENDBRANCH  17  18
ENDBRANCH  16  17
END_RES ASN A 133
