REMARK VINA RESULT:    -4.273      3.050      4.771
REMARK INTER + INTRA:          -6.850
REMARK INTER:                  -3.830
REMARK INTRA:                  -3.020
REMARK UNBOUND:                -2.327
REMARK SMILES Cc1cn(-c2ccc(Br)cc2)nn1
REMARK SMILES IDX 5 1 6 2 7 3 8 4 9 5 10 6 11 7 4 8 1 9 2 10 3 11 13 12 12 13
REMARK H PARENT
REMARK Flexibility Score: inf
ROOT
ATOM      1  C   UNL     1      29.040  31.822  15.577  1.00  0.00     0.066 A 
ATOM      2  C   UNL     1      28.892  32.977  14.808  1.00  0.00     0.029 A 
ATOM      3  C   UNL     1      29.938  33.817  14.569  1.00  0.00     0.018 A 
ATOM      4  C   UNL     1      31.163  33.506  15.104  1.00  0.00     0.018 A 
ATOM      5  Br  UNL     1      32.632  34.680  14.771  1.00  0.00    -0.051 Br
ATOM      6  C   UNL     1      31.362  32.372  15.874  1.00  0.00     0.018 A 
ATOM      7  C   UNL     1      30.286  31.539  16.101  1.00  0.00     0.029 A 
ENDROOT
BRANCH   1   8
ATOM      8  N   UNL     1      27.948  30.960  15.817  1.00  0.00    -0.220 N 
ATOM      9  C   UNL     1      24.511  29.698  15.867  1.00  0.00     0.070 C 
ATOM     10  C   UNL     1      25.961  29.989  15.964  1.00  0.00     0.080 A 
ATOM     11  C   UNL     1      26.642  31.097  15.538  1.00  0.00     0.140 A 
ATOM     12  N   UNL     1      26.896  29.181  16.508  1.00  0.00    -0.135 NA
ATOM     13  N   UNL     1      28.074  29.780  16.410  1.00  0.00    -0.062 NA
ENDBRANCH   1   8
TORSDOF 1
BEGIN_RES LYS A 135
REMARK  4 active torsions:
REMARK  status: ('A' for Active; 'I' for Inactive)
REMARK    1  A    between atoms: CA   and  CB  
REMARK    2  A    between atoms: CB   and  CG  
REMARK    3  A    between atoms: CG   and  CD  
REMARK    4  A    between atoms: CD   and  CE  
ROOT
ATOM      1  CA  LYS A 135      33.193  34.663   9.290  1.00 25.02     0.186 C 
ENDROOT
BRANCH   1   2
ATOM      2  CB  LYS A 135      32.060  35.360  10.034  1.00 26.63     0.034 C 
BRANCH   2   3
ATOM      3  CG  LYS A 135      30.701  34.777   9.744  1.00 29.45     0.005 C 
BRANCH   3   4
ATOM      4  CD  LYS A 135      30.526  34.539   8.252  1.00 32.00     0.041 C 
BRANCH   4   5
ATOM      5  CE  LYS A 135      29.120  34.904   7.816  1.00 34.25     0.338 C 
ATOM      6  NZ  LYS A 135      28.375  35.579   8.915  1.00 35.99     0.618 N 
ENDBRANCH   4   5
ENDBRANCH   3   4
ENDBRANCH   2   3
ENDBRANCH   1   2
END_RES LYS A 135
BEGIN_RES TYR A 136
REMARK  2 active torsions:
REMARK  status: ('A' for Active; 'I' for Inactive)
REMARK    5  A    between atoms: CA   and  CB  
REMARK    6  A    between atoms: CB   and  CG  
ROOT
ATOM      7  CA  TYR A 136      36.583  36.399   8.994  1.00 26.14     0.191 C 
ENDROOT
BRANCH   7   8
ATOM      8  CB  TYR A 136      37.367  36.835  10.240  1.00 28.16     0.060 C 
BRANCH   8   9
ATOM      9  CG  TYR A 136      37.142  38.286  10.589  1.00 31.88    -0.020 A 
ATOM     10  CD2 TYR A 136      37.491  38.790  11.844  1.00 32.67    -0.002 A 
ATOM     11  CE2 TYR A 136      37.276  40.139  12.159  1.00 33.89     0.027 A 
ATOM     12  CZ  TYR A 136      36.705  40.990  11.210  1.00 34.34     0.131 A 
ATOM     13  OH  TYR A 136      36.490  42.331  11.497  1.00 35.14    -0.190 OA
ATOM     14  CE1 TYR A 136      36.351  40.506   9.959  1.00 35.01     0.027 A 
ATOM     15  CD1 TYR A 136      36.564  39.159   9.659  1.00 33.57    -0.002 A 
ENDBRANCH   8   9
ENDBRANCH   7   8
END_RES TYR A 136
BEGIN_RES ASN A 133
REMARK  2 active torsions:
REMARK  status: ('A' for Active; 'I' for Inactive)
REMARK    7  A    between atoms: CA   and  CB  
REMARK    8  A    between atoms: CB   and  CG  
ROOT
ATOM     16  CA  ASN A 133      31.225  30.257  11.749  1.00 18.15     0.196 C 
ENDROOT
BRANCH  16  17
ATOM     17  CB  ASN A 133      30.092  31.240  11.460  1.00 18.27     0.126 C 
BRANCH  17  18
ATOM     18  CG  ASN A 133      28.754  30.580  11.331  1.00 18.94     0.276 C 
ATOM     19  OD1 ASN A 133      28.601  29.582  10.625  1.00 18.09    -0.269 OA
ATOM     20  ND2 ASN A 133      27.760  31.138  12.020  1.00 18.93    -0.107 N 
ENDBRANCH  17  18
ENDBRANCH  16  17
END_RES ASN A 133
