REMARK VINA RESULT:    -4.976      5.717      8.054
REMARK INTER + INTRA:          -9.772
REMARK INTER:                  -5.931
REMARK INTRA:                  -3.840
REMARK UNBOUND:                -3.778
REMARK SMILES Cc1cn(-c2ccc(-c3c4ccc(=O)cc-4oc4cc(O)ccc34)c(C(=O)[O-])c2)nn1
REMARK SMILES IDX 9 1 24 2 23 3 22 4 20 5 19 6 18 7 17 8 16 9 15 10 13 11
REMARK SMILES IDX 14 12 12 13 11 14 10 15 8 16 5 17 29 18 6 19 25 20 7 21 4 22
REMARK SMILES IDX 1 23 2 24 3 25 31 26 30 27 26 28 27 29 28 30 21 31
REMARK H PARENT 21 32
REMARK Flexibility Score: inf
ROOT
ATOM      1  C   UNL     1      38.747  33.191  20.853  1.00  0.00     0.004 A 
ATOM      2  C   UNL     1      39.960  33.466  21.445  1.00  0.00     0.026 A 
ATOM      3  C   UNL     1      40.949  34.098  20.722  1.00  0.00     0.016 A 
ATOM      4  C   UNL     1      42.184  34.393  21.278  1.00  0.00     0.047 A 
ATOM      5  C   UNL     1      42.405  34.036  22.591  1.00  0.00     0.119 A 
ATOM      6  C   UNL     1      41.417  33.403  23.316  1.00  0.00     0.093 A 
ATOM      7  C   UNL     1      40.169  33.101  22.768  1.00  0.00     0.139 A 
ATOM      8  O   UNL     1      39.250  32.498  23.488  1.00  0.00    -0.456 OA
ATOM      9  C   UNL     1      38.080  32.198  23.020  1.00  0.00     0.139 A 
ATOM     10  C   UNL     1      37.094  31.569  23.743  1.00  0.00     0.099 A 
ATOM     11  C   UNL     1      35.891  31.304  23.132  1.00  0.00     0.182 A 
ATOM     12  O   UNL     1      34.997  30.728  23.800  1.00  0.00    -0.290 OA
ATOM     13  C   UNL     1      35.632  31.647  21.818  1.00  0.00     0.053 A 
ATOM     14  C   UNL     1      36.572  32.280  21.035  1.00  0.00     0.016 A 
ATOM     15  C   UNL     1      37.795  32.559  21.624  1.00  0.00     0.026 A 
ENDROOT
BRANCH   1  16
ATOM     16  C   UNL     1      38.538  33.577  19.473  1.00  0.00    -0.008 A 
ATOM     17  C   UNL     1      38.107  34.385  16.834  1.00  0.00     0.067 A 
ATOM     18  C   UNL     1      37.771  35.225  17.874  1.00  0.00     0.039 A 
ATOM     19  C   UNL     1      38.659  33.140  17.098  1.00  0.00     0.029 A 
ATOM     20  C   UNL     1      37.992  34.807  19.174  1.00  0.00     0.007 A 
ATOM     21  C   UNL     1      38.866  32.753  18.412  1.00  0.00     0.012 A 
BRANCH  17  22
ATOM     22  N   UNL     1      37.903  34.761  15.478  1.00  0.00    -0.220 N 
ATOM     23  C   UNL     1      37.408  33.971  11.916  1.00  0.00     0.070 C 
ATOM     24  C   UNL     1      37.590  34.564  13.274  1.00  0.00     0.080 A 
ATOM     25  C   UNL     1      37.775  33.870  14.451  1.00  0.00     0.140 A 
ATOM     26  N   UNL     1      37.611  35.863  13.624  1.00  0.00    -0.135 NA
ATOM     27  N   UNL     1      37.799  35.944  14.940  1.00  0.00    -0.062 NA
ENDBRANCH  17  22
BRANCH  20  28
ATOM     28  C   UNL     1      37.632  35.707  20.264  1.00  0.00     0.072 C 
ATOM     29  O   UNL     1      38.447  36.535  20.732  1.00  0.00    -0.545 OA
ATOM     30  O   UNL     1      36.363  35.678  20.825  1.00  0.00    -0.545 OA
ENDBRANCH  20  28
ENDBRANCH   1  16
BRANCH   5  31
ATOM     31  O   UNL     1      43.653  34.331  23.164  1.00  0.00    -0.508 OA
ATOM     32  H   UNL     1      43.941  33.864  24.012  1.00  0.00     0.293 HD
ENDBRANCH   5  31
TORSDOF 4
BEGIN_RES LYS A 135
REMARK  4 active torsions:
REMARK  status: ('A' for Active; 'I' for Inactive)
REMARK    1  A    between atoms: CA   and  CB  
REMARK    2  A    between atoms: CB   and  CG  
REMARK    3  A    between atoms: CG   and  CD  
REMARK    4  A    between atoms: CD   and  CE  
ROOT
ATOM      1  CA  LYS A 135      33.193  34.663   9.290  1.00 25.02     0.186 C 
ENDROOT
BRANCH   1   2
ATOM      2  CB  LYS A 135      32.060  35.360  10.034  1.00 26.63     0.034 C 
BRANCH   2   3
ATOM      3  CG  LYS A 135      30.702  34.770   9.753  1.00 29.45     0.005 C 
BRANCH   3   4
ATOM      4  CD  LYS A 135      30.476  34.634   8.255  1.00 32.00     0.041 C 
BRANCH   4   5
ATOM      5  CE  LYS A 135      29.025  34.905   7.908  1.00 34.25     0.338 C 
ATOM      6  NZ  LYS A 135      28.905  35.553   6.572  1.00 35.99     0.618 N 
ENDBRANCH   4   5
ENDBRANCH   3   4
ENDBRANCH   2   3
ENDBRANCH   1   2
END_RES LYS A 135
BEGIN_RES TYR A 136
REMARK  2 active torsions:
REMARK  status: ('A' for Active; 'I' for Inactive)
REMARK    5  A    between atoms: CA   and  CB  
REMARK    6  A    between atoms: CB   and  CG  
ROOT
ATOM      7  CA  TYR A 136      36.583  36.399   8.994  1.00 26.14     0.191 C 
ENDROOT
BRANCH   7   8
ATOM      8  CB  TYR A 136      37.367  36.835  10.240  1.00 28.16     0.060 C 
BRANCH   8   9
ATOM      9  CG  TYR A 136      37.218  38.308  10.533  1.00 31.88    -0.020 A 
ATOM     10  CD2 TYR A 136      37.856  38.895  11.628  1.00 32.67    -0.002 A 
ATOM     11  CE2 TYR A 136      37.710  40.264  11.893  1.00 33.89     0.027 A 
ATOM     12  CZ  TYR A 136      36.918  41.052  11.054  1.00 34.34     0.131 A 
ATOM     13  OH  TYR A 136      36.765  42.410  11.293  1.00 35.14    -0.190 OA
ATOM     14  CE1 TYR A 136      36.276  40.484   9.963  1.00 35.01     0.027 A 
ATOM     15  CD1 TYR A 136      36.424  39.119   9.713  1.00 33.57    -0.002 A 
ENDBRANCH   8   9
ENDBRANCH   7   8
END_RES TYR A 136
BEGIN_RES ASN A 133
REMARK  2 active torsions:
REMARK  status: ('A' for Active; 'I' for Inactive)
REMARK    7  A    between atoms: CA   and  CB  
REMARK    8  A    between atoms: CB   and  CG  
ROOT
ATOM     16  CA  ASN A 133      31.225  30.257  11.749  1.00 18.15     0.196 C 
ENDROOT
BRANCH  16  17
ATOM     17  CB  ASN A 133      30.092  31.240  11.460  1.00 18.27     0.126 C 
BRANCH  17  18
ATOM     18  CG  ASN A 133      28.750  30.583  11.361  1.00 18.94     0.276 C 
ATOM     19  OD1 ASN A 133      28.568  29.612  10.625  1.00 18.09    -0.269 OA
ATOM     20  ND2 ASN A 133      27.784  31.115  12.109  1.00 18.93    -0.107 N 
ENDBRANCH  17  18
ENDBRANCH  16  17
END_RES ASN A 133
