REMARK VINA RESULT:    -4.254      4.007      5.677
REMARK INTER + INTRA:          -6.830
REMARK INTER:                  -4.314
REMARK INTRA:                  -2.516
REMARK UNBOUND:                -2.327
REMARK SMILES Cc1cn(-c2ccc(Br)cc2)nn1
REMARK SMILES IDX 5 1 6 2 7 3 8 4 9 5 10 6 11 7 4 8 1 9 2 10 3 11 13 12 12 13
REMARK H PARENT
REMARK Flexibility Score: inf
ROOT
ATOM      1  C   UNL     1      30.210  31.725  17.517  1.00  0.00     0.066 A 
ATOM      2  C   UNL     1      30.500  31.452  16.180  1.00  0.00     0.029 A 
ATOM      3  C   UNL     1      31.242  32.305  15.420  1.00  0.00     0.018 A 
ATOM      4  C   UNL     1      31.710  33.459  15.998  1.00  0.00     0.018 A 
ATOM      5  Br  UNL     1      32.751  34.658  14.937  1.00  0.00    -0.051 Br
ATOM      6  C   UNL     1      31.449  33.776  17.321  1.00  0.00     0.018 A 
ATOM      7  C   UNL     1      30.695  32.894  18.068  1.00  0.00     0.029 A 
ENDROOT
BRANCH   1   8
ATOM      8  N   UNL     1      29.440  30.832  18.295  1.00  0.00    -0.220 N 
ATOM      9  C   UNL     1      26.715  28.582  19.255  1.00  0.00     0.070 C 
ATOM     10  C   UNL     1      27.915  29.439  19.097  1.00  0.00     0.080 A 
ATOM     11  C   UNL     1      28.277  30.216  18.031  1.00  0.00     0.140 A 
ATOM     12  N   UNL     1      28.894  29.605  20.011  1.00  0.00    -0.135 NA
ATOM     13  N   UNL     1      29.794  30.441  19.511  1.00  0.00    -0.062 NA
ENDBRANCH   1   8
TORSDOF 1
BEGIN_RES LYS A 135
REMARK  4 active torsions:
REMARK  status: ('A' for Active; 'I' for Inactive)
REMARK    1  A    between atoms: CA   and  CB  
REMARK    2  A    between atoms: CB   and  CG  
REMARK    3  A    between atoms: CG   and  CD  
REMARK    4  A    between atoms: CD   and  CE  
ROOT
ATOM      1  CA  LYS A 135      33.193  34.663   9.290  1.00 25.02     0.186 C 
ENDROOT
BRANCH   1   2
ATOM      2  CB  LYS A 135      32.060  35.360  10.034  1.00 26.63     0.034 C 
BRANCH   2   3
ATOM      3  CG  LYS A 135      30.781  34.564  10.066  1.00 29.45     0.005 C 
BRANCH   3   4
ATOM      4  CD  LYS A 135      30.245  34.353   8.658  1.00 32.00     0.041 C 
BRANCH   4   5
ATOM      5  CE  LYS A 135      28.729  34.330   8.663  1.00 34.25     0.338 C 
ATOM      6  NZ  LYS A 135      28.176  35.145   7.546  1.00 35.99     0.618 N 
ENDBRANCH   4   5
ENDBRANCH   3   4
ENDBRANCH   2   3
ENDBRANCH   1   2
END_RES LYS A 135
BEGIN_RES TYR A 136
REMARK  2 active torsions:
REMARK  status: ('A' for Active; 'I' for Inactive)
REMARK    5  A    between atoms: CA   and  CB  
REMARK    6  A    between atoms: CB   and  CG  
ROOT
ATOM      7  CA  TYR A 136      36.583  36.399   8.994  1.00 26.14     0.191 C 
ENDROOT
BRANCH   7   8
ATOM      8  CB  TYR A 136      37.367  36.835  10.240  1.00 28.16     0.060 C 
BRANCH   8   9
ATOM      9  CG  TYR A 136      37.449  35.748  11.284  1.00 31.88    -0.020 A 
ATOM     10  CD2 TYR A 136      36.310  35.312  11.964  1.00 32.67    -0.002 A 
ATOM     11  CE2 TYR A 136      36.397  34.303  12.933  1.00 33.89     0.027 A 
ATOM     12  CZ  TYR A 136      37.635  33.726  13.224  1.00 34.34     0.131 A 
ATOM     13  OH  TYR A 136      37.744  32.720  14.175  1.00 35.14    -0.190 OA
ATOM     14  CE1 TYR A 136      38.777  34.148  12.559  1.00 35.01     0.027 A 
ATOM     15  CD1 TYR A 136      38.679  35.158  11.601  1.00 33.57    -0.002 A 
ENDBRANCH   8   9
ENDBRANCH   7   8
END_RES TYR A 136
BEGIN_RES ASN A 133
REMARK  2 active torsions:
REMARK  status: ('A' for Active; 'I' for Inactive)
REMARK    7  A    between atoms: CA   and  CB  
REMARK    8  A    between atoms: CB   and  CG  
ROOT
ATOM     16  CA  ASN A 133      31.225  30.257  11.749  1.00 18.15     0.196 C 
ENDROOT
BRANCH  16  17
ATOM     17  CB  ASN A 133      30.092  31.240  11.460  1.00 18.27     0.126 C 
BRANCH  17  18
ATOM     18  CG  ASN A 133      28.750  30.583  11.358  1.00 18.94     0.276 C 
ATOM     19  OD1 ASN A 133      28.568  29.617  10.615  1.00 18.09    -0.269 OA
ATOM     20  ND2 ASN A 133      27.785  31.108  12.111  1.00 18.93    -0.107 N 
ENDBRANCH  17  18
ENDBRANCH  16  17
END_RES ASN A 133
