REMARK VINA RESULT:    -3.286      9.235     13.349
REMARK INTER + INTRA:          -7.318
REMARK INTER:                  -3.997
REMARK INTRA:                  -3.321
REMARK UNBOUND:                -3.264
REMARK SMILES Cc1cn(CCNS(C)(=O)=O)nn1
REMARK SMILES IDX 6 1 5 2 4 3 1 4 2 5 3 6 13 7 12 8 7 9 8 11 10 12 11 13 9 14
REMARK H PARENT 7 10
REMARK Flexibility Score: inf
ROOT
ATOM      1  C   UNL     1      31.207  33.538  14.688  1.00  0.00     0.122 C 
ENDROOT
BRANCH   1   2
ATOM      2  C   UNL     1      32.347  34.268  15.407  1.00  0.00     0.162 C 
BRANCH   2   3
ATOM      3  N   UNL     1      33.115  34.961  14.362  1.00  0.00    -0.251 N 
ATOM      4  C   UNL     1      33.774  37.653  11.980  1.00  0.00     0.070 C 
ATOM      5  C   UNL     1      33.757  36.442  12.851  1.00  0.00     0.080 A 
ATOM      6  C   UNL     1      32.789  36.122  13.775  1.00  0.00     0.134 A 
ATOM      7  N   UNL     1      34.652  35.443  12.911  1.00  0.00    -0.136 NA
ATOM      8  N   UNL     1      34.251  34.572  13.817  1.00  0.00    -0.067 NA
ENDBRANCH   2   3
ENDBRANCH   1   2
BRANCH   1   9
ATOM      9  N   UNL     1      31.236  32.157  15.072  1.00  0.00    -0.214 NA
ATOM     10  H   UNL     1      32.158  31.861  15.411  1.00  0.00     0.141 HD
BRANCH   9  11
ATOM     11  S   UNL     1      29.975  31.807  16.181  1.00  0.00     0.208 S 
ATOM     12  O   UNL     1      30.534  31.543  17.548  1.00  0.00    -0.213 OA
ATOM     13  O   UNL     1      29.252  30.560  15.703  1.00  0.00    -0.213 OA
ATOM     14  C   UNL     1      28.819  33.130  16.190  1.00  0.00     0.176 C 
ENDBRANCH   9  11
ENDBRANCH   1   9
TORSDOF 4
BEGIN_RES LYS A 135
REMARK  4 active torsions:
REMARK  status: ('A' for Active; 'I' for Inactive)
REMARK    1  A    between atoms: CA   and  CB  
REMARK    2  A    between atoms: CB   and  CG  
REMARK    3  A    between atoms: CG   and  CD  
REMARK    4  A    between atoms: CD   and  CE  
ROOT
ATOM      1  CA  LYS A 135      33.193  34.663   9.290  1.00 25.02     0.186 C 
ENDROOT
BRANCH   1   2
ATOM      2  CB  LYS A 135      32.060  35.360  10.034  1.00 26.63     0.034 C 
BRANCH   2   3
ATOM      3  CG  LYS A 135      30.832  35.584   9.189  1.00 29.45     0.005 C 
BRANCH   3   4
ATOM      4  CD  LYS A 135      30.225  34.256   8.763  1.00 32.00     0.041 C 
BRANCH   4   5
ATOM      5  CE  LYS A 135      28.733  34.402   8.532  1.00 34.25     0.338 C 
ATOM      6  NZ  LYS A 135      27.956  33.698   9.588  1.00 35.99     0.618 N 
ENDBRANCH   4   5
ENDBRANCH   3   4
ENDBRANCH   2   3
ENDBRANCH   1   2
END_RES LYS A 135
BEGIN_RES TYR A 136
REMARK  2 active torsions:
REMARK  status: ('A' for Active; 'I' for Inactive)
REMARK    5  A    between atoms: CA   and  CB  
REMARK    6  A    between atoms: CB   and  CG  
ROOT
ATOM      7  CA  TYR A 136      36.583  36.399   8.994  1.00 26.14     0.191 C 
ENDROOT
BRANCH   7   8
ATOM      8  CB  TYR A 136      37.367  36.835  10.240  1.00 28.16     0.060 C 
BRANCH   8   9
ATOM      9  CG  TYR A 136      37.157  38.290  10.578  1.00 31.88    -0.020 A 
ATOM     10  CD2 TYR A 136      36.446  39.136   9.723  1.00 32.67    -0.002 A 
ATOM     11  CE2 TYR A 136      36.257  40.487  10.046  1.00 33.89     0.027 A 
ATOM     12  CZ  TYR A 136      36.786  40.997  11.234  1.00 34.34     0.131 A 
ATOM     13  OH  TYR A 136      36.606  42.329  11.577  1.00 35.14    -0.190 OA
ATOM     14  CE1 TYR A 136      37.496  40.171  12.094  1.00 35.01     0.027 A 
ATOM     15  CD1 TYR A 136      37.682  38.829  11.759  1.00 33.57    -0.002 A 
ENDBRANCH   8   9
ENDBRANCH   7   8
END_RES TYR A 136
BEGIN_RES ASN A 133
REMARK  2 active torsions:
REMARK  status: ('A' for Active; 'I' for Inactive)
REMARK    7  A    between atoms: CA   and  CB  
REMARK    8  A    between atoms: CB   and  CG  
ROOT
ATOM     16  CA  ASN A 133      31.225  30.257  11.749  1.00 18.15     0.196 C 
ENDROOT
BRANCH  16  17
ATOM     17  CB  ASN A 133      30.092  31.240  11.460  1.00 18.27     0.126 C 
BRANCH  17  18
ATOM     18  CG  ASN A 133      28.750  30.584  11.362  1.00 18.94     0.276 C 
ATOM     19  OD1 ASN A 133      28.563  29.621  10.616  1.00 18.09    -0.269 OA
ATOM     20  ND2 ASN A 133      27.789  31.106  12.123  1.00 18.93    -0.107 N 
ENDBRANCH  17  18
ENDBRANCH  16  17
END_RES ASN A 133
