REMARK VINA RESULT:    -7.320      1.374      3.460
REMARK INTER + INTRA:          -9.994
REMARK INTER:                  -6.700
REMARK INTRA:                  -3.294
REMARK UNBOUND:                -1.391
REMARK SMILES Cc1cn(C(c2ccccc2)c2ccccc2)nn1
REMARK SMILES IDX 5 1 4 2 1 3 2 4 3 5 19 6 18 7 6 8 7 9 11 10 8 11 10 12 9 13
REMARK SMILES IDX 12 14 13 15 17 16 14 17 16 18 15 19
REMARK H PARENT
REMARK Flexibility Score: inf
ROOT
ATOM      1  C   UNL     1      33.229  35.430  13.195  1.00  0.00     0.169 C 
ENDROOT
BRANCH   1   2
ATOM      2  N   UNL     1      32.236  34.708  13.988  1.00  0.00    -0.240 N 
ATOM      3  C   UNL     1      30.921  32.745  16.776  1.00  0.00     0.070 C 
ATOM      4  C   UNL     1      31.219  33.523  15.569  1.00  0.00     0.080 A 
ATOM      5  C   UNL     1      32.426  34.080  15.162  1.00  0.00     0.135 A 
ATOM      6  N   UNL     1      30.341  33.846  14.601  1.00  0.00    -0.136 NA
ATOM      7  N   UNL     1      30.964  34.547  13.675  1.00  0.00    -0.066 NA
ENDBRANCH   1   2
BRANCH   1   8
ATOM      8  C   UNL     1      34.603  35.297  13.725  1.00  0.00    -0.019 A 
ATOM      9  C   UNL     1      35.052  35.950  14.841  1.00  0.00     0.006 A 
ATOM     10  C   UNL     1      35.518  34.465  13.084  1.00  0.00     0.006 A 
ATOM     11  C   UNL     1      36.366  35.770  15.287  1.00  0.00     0.000 A 
ATOM     12  C   UNL     1      36.807  34.288  13.520  1.00  0.00     0.000 A 
ATOM     13  C   UNL     1      37.248  34.945  14.635  1.00  0.00     0.000 A 
ENDBRANCH   1   8
BRANCH   1  14
ATOM     14  C   UNL     1      32.812  36.805  12.917  1.00  0.00    -0.019 A 
ATOM     15  C   UNL     1      32.439  37.718  13.878  1.00  0.00     0.006 A 
ATOM     16  C   UNL     1      32.793  37.265  11.613  1.00  0.00     0.006 A 
ATOM     17  C   UNL     1      32.077  38.988  13.545  1.00  0.00     0.000 A 
ATOM     18  C   UNL     1      32.432  38.543  11.250  1.00  0.00     0.000 A 
ATOM     19  C   UNL     1      32.070  39.408  12.238  1.00  0.00     0.000 A 
ENDBRANCH   1  14
TORSDOF 3
BEGIN_RES LYS A 135
REMARK  4 active torsions:
REMARK  status: ('A' for Active; 'I' for Inactive)
REMARK    1  A    between atoms: CA   and  CB  
REMARK    2  A    between atoms: CB   and  CG  
REMARK    3  A    between atoms: CG   and  CD  
REMARK    4  A    between atoms: CD   and  CE  
ROOT
ATOM      1  CA  LYS A 135      33.193  34.663   9.290  1.00 25.02     0.186 C 
ENDROOT
BRANCH   1   2
ATOM      2  CB  LYS A 135      32.060  35.360  10.034  1.00 26.63     0.034 C 
BRANCH   2   3
ATOM      3  CG  LYS A 135      30.704  34.761   9.764  1.00 29.45     0.005 C 
BRANCH   3   4
ATOM      4  CD  LYS A 135      30.547  34.430   8.288  1.00 32.00     0.041 C 
BRANCH   4   5
ATOM      5  CE  LYS A 135      29.329  35.127   7.713  1.00 34.25     0.338 C 
ATOM      6  NZ  LYS A 135      28.073  34.588   8.305  1.00 35.99     0.618 N 
ENDBRANCH   4   5
ENDBRANCH   3   4
ENDBRANCH   2   3
ENDBRANCH   1   2
END_RES LYS A 135
BEGIN_RES TYR A 136
REMARK  2 active torsions:
REMARK  status: ('A' for Active; 'I' for Inactive)
REMARK    5  A    between atoms: CA   and  CB  
REMARK    6  A    between atoms: CB   and  CG  
ROOT
ATOM      7  CA  TYR A 136      36.583  36.399   8.994  1.00 26.14     0.191 C 
ENDROOT
BRANCH   7   8
ATOM      8  CB  TYR A 136      37.367  36.835  10.240  1.00 28.16     0.060 C 
BRANCH   8   9
ATOM      9  CG  TYR A 136      36.737  38.015  10.938  1.00 31.88    -0.020 A 
ATOM     10  CD2 TYR A 136      36.591  38.040  12.327  1.00 32.67    -0.002 A 
ATOM     11  CE2 TYR A 136      36.003  39.140  12.966  1.00 33.89     0.027 A 
ATOM     12  CZ  TYR A 136      35.557  40.225  12.208  1.00 34.34     0.131 A 
ATOM     13  OH  TYR A 136      34.978  41.329  12.820  1.00 35.14    -0.190 OA
ATOM     14  CE1 TYR A 136      35.693  40.217  10.827  1.00 35.01     0.027 A 
ATOM     15  CD1 TYR A 136      36.275  39.113  10.202  1.00 33.57    -0.002 A 
ENDBRANCH   8   9
ENDBRANCH   7   8
END_RES TYR A 136
BEGIN_RES ASN A 133
REMARK  2 active torsions:
REMARK  status: ('A' for Active; 'I' for Inactive)
REMARK    7  A    between atoms: CA   and  CB  
REMARK    8  A    between atoms: CB   and  CG  
ROOT
ATOM     16  CA  ASN A 133      31.225  30.257  11.749  1.00 18.15     0.196 C 
ENDROOT
BRANCH  16  17
ATOM     17  CB  ASN A 133      30.092  31.240  11.460  1.00 18.27     0.126 C 
BRANCH  17  18
ATOM     18  CG  ASN A 133      28.757  30.578  11.315  1.00 18.94     0.276 C 
ATOM     19  OD1 ASN A 133      28.599  29.618  10.559  1.00 18.09    -0.269 OA
ATOM     20  ND2 ASN A 133      27.769  31.092  12.047  1.00 18.93    -0.107 N 
ENDBRANCH  17  18
ENDBRANCH  16  17
END_RES ASN A 133
