REMARK VINA RESULT:    -5.475      4.937      7.280
REMARK INTER + INTRA:          -9.089
REMARK INTER:                  -5.630
REMARK INTRA:                  -3.459
REMARK UNBOUND:                -2.333
REMARK SMILES Cc1cn(-c2ccc(S(=O)(=O)Nc3nccs3)cc2)nn1
REMARK SMILES IDX 9 1 10 2 11 3 8 4 5 5 6 6 19 7 7 8 18 9 4 10 1 11 2 12 3 13
REMARK SMILES IDX 21 14 20 15 12 16 13 18 14 19 17 20 15 21 16 22
REMARK H PARENT 12 17
REMARK Flexibility Score: inf
ROOT
ATOM      1  S   UNL     1      27.671  27.812  20.568  1.00  0.00     0.263 S 
ATOM      2  O   UNL     1      27.796  28.984  21.485  1.00  0.00    -0.201 OA
ATOM      3  O   UNL     1      26.771  26.781  21.220  1.00  0.00    -0.201 OA
ENDROOT
BRANCH   1   4
ATOM      4  C   UNL     1      26.877  28.370  19.111  1.00  0.00     0.088 A 
ATOM      5  C   UNL     1      25.735  29.311  16.812  1.00  0.00     0.066 A 
ATOM      6  C   UNL     1      26.985  29.731  17.174  1.00  0.00     0.030 A 
ATOM      7  C   UNL     1      25.058  28.423  17.598  1.00  0.00     0.030 A 
ATOM      8  C   UNL     1      27.577  29.275  18.318  1.00  0.00     0.024 A 
ATOM      9  C   UNL     1      25.631  27.954  18.748  1.00  0.00     0.024 A 
BRANCH   5  10
ATOM     10  N   UNL     1      25.192  29.847  15.586  1.00  0.00    -0.220 N 
ATOM     11  C   UNL     1      22.830  30.049  12.785  1.00  0.00     0.070 C 
ATOM     12  C   UNL     1      23.900  30.165  13.806  1.00  0.00     0.080 A 
ATOM     13  C   UNL     1      24.103  29.400  14.935  1.00  0.00     0.140 A 
ATOM     14  N   UNL     1      24.898  31.066  13.821  1.00  0.00    -0.135 NA
ATOM     15  N   UNL     1      25.653  30.858  14.885  1.00  0.00    -0.062 NA
ENDBRANCH   5  10
ENDBRANCH   1   4
BRANCH   1  16
ATOM     16  N   UNL     1      29.188  27.118  20.226  1.00  0.00    -0.255 N 
ATOM     17  H   UNL     1      29.281  26.552  19.338  1.00  0.00     0.182 HD
BRANCH  16  18
ATOM     18  C   UNL     1      30.295  27.300  21.122  1.00  0.00     0.196 A 
ATOM     19  N   UNL     1      30.765  26.844  22.043  1.00  0.00    -0.228 NA
ATOM     20  S   UNL     1      31.457  28.758  20.782  1.00  0.00    -0.105 S 
ATOM     21  C   UNL     1      31.830  27.201  22.724  1.00  0.00     0.125 A 
ATOM     22  C   UNL     1      32.487  28.293  22.261  1.00  0.00     0.089 A 
ENDBRANCH  16  18
ENDBRANCH   1  16
TORSDOF 4
BEGIN_RES LYS A 135
REMARK  4 active torsions:
REMARK  status: ('A' for Active; 'I' for Inactive)
REMARK    1  A    between atoms: CA   and  CB  
REMARK    2  A    between atoms: CB   and  CG  
REMARK    3  A    between atoms: CG   and  CD  
REMARK    4  A    between atoms: CD   and  CE  
ROOT
ATOM      1  CA  LYS A 135      33.193  34.663   9.290  1.00 25.02     0.186 C 
ENDROOT
BRANCH   1   2
ATOM      2  CB  LYS A 135      32.060  35.360  10.034  1.00 26.63     0.034 C 
BRANCH   2   3
ATOM      3  CG  LYS A 135      30.710  34.732   9.801  1.00 29.45     0.005 C 
BRANCH   3   4
ATOM      4  CD  LYS A 135      30.462  34.530   8.314  1.00 32.00     0.041 C 
BRANCH   4   5
ATOM      5  CE  LYS A 135      29.018  34.837   7.968  1.00 34.25     0.338 C 
ATOM      6  NZ  LYS A 135      28.914  35.509   6.643  1.00 35.99     0.618 N 
ENDBRANCH   4   5
ENDBRANCH   3   4
ENDBRANCH   2   3
ENDBRANCH   1   2
END_RES LYS A 135
BEGIN_RES TYR A 136
REMARK  2 active torsions:
REMARK  status: ('A' for Active; 'I' for Inactive)
REMARK    5  A    between atoms: CA   and  CB  
REMARK    6  A    between atoms: CB   and  CG  
ROOT
ATOM      7  CA  TYR A 136      36.583  36.399   8.994  1.00 26.14     0.191 C 
ENDROOT
BRANCH   7   8
ATOM      8  CB  TYR A 136      37.367  36.835  10.240  1.00 28.16     0.060 C 
BRANCH   8   9
ATOM      9  CG  TYR A 136      37.207  38.305  10.542  1.00 31.88    -0.020 A 
ATOM     10  CD2 TYR A 136      38.183  39.230  10.168  1.00 32.67    -0.002 A 
ATOM     11  CE2 TYR A 136      38.025  40.593  10.454  1.00 33.89     0.027 A 
ATOM     12  CZ  TYR A 136      36.880  41.034  11.121  1.00 34.34     0.131 A 
ATOM     13  OH  TYR A 136      36.699  42.380  11.409  1.00 35.14    -0.190 OA
ATOM     14  CE1 TYR A 136      35.900  40.128  11.501  1.00 35.01     0.027 A 
ATOM     15  CD1 TYR A 136      36.071  38.772  11.216  1.00 33.57    -0.002 A 
ENDBRANCH   8   9
ENDBRANCH   7   8
END_RES TYR A 136
BEGIN_RES ASN A 133
REMARK  2 active torsions:
REMARK  status: ('A' for Active; 'I' for Inactive)
REMARK    7  A    between atoms: CA   and  CB  
REMARK    8  A    between atoms: CB   and  CG  
ROOT
ATOM     16  CA  ASN A 133      31.225  30.257  11.749  1.00 18.15     0.196 C 
ENDROOT
BRANCH  16  17
ATOM     17  CB  ASN A 133      30.092  31.240  11.460  1.00 18.27     0.126 C 
BRANCH  17  18
ATOM     18  CG  ASN A 133      28.760  30.576  11.296  1.00 18.94     0.276 C 
ATOM     19  OD1 ASN A 133      28.624  29.590  10.569  1.00 18.09    -0.269 OA
ATOM     20  ND2 ASN A 133      27.751  31.118  11.976  1.00 18.93    -0.107 N 
ENDBRANCH  17  18
ENDBRANCH  16  17
END_RES ASN A 133
