REMARK VINA RESULT:    -3.664      3.786      8.292
REMARK INTER + INTRA:          -7.271
REMARK INTER:                  -4.026
REMARK INTRA:                  -3.245
REMARK UNBOUND:                -2.965
REMARK SMILES COc1ccc(Cn2cc(C)nn2)cc1
REMARK SMILES IDX 6 1 5 2 4 3 3 4 15 5 14 6 7 7 8 8 11 9 10 10 9 11 12 12
REMARK SMILES IDX 13 13 2 14 1 15
REMARK H PARENT
REMARK Flexibility Score: inf
ROOT
ATOM      1  C   UNL     1      24.630  30.703  15.115  1.00  0.00    -0.026 A 
ATOM      2  C   UNL     1      23.912  29.567  15.462  1.00  0.00     0.009 A 
ATOM      3  C   UNL     1      23.173  28.895  14.487  1.00  0.00     0.047 A 
ATOM      4  C   UNL     1      23.175  29.382  13.197  1.00  0.00     0.118 A 
ATOM      5  C   UNL     1      23.901  30.513  12.892  1.00  0.00     0.047 A 
ATOM      6  C   UNL     1      24.642  31.198  13.836  1.00  0.00     0.009 A 
ENDROOT
BRANCH   1   7
ATOM      7  C   UNL     1      25.405  31.394  16.175  1.00  0.00     0.181 C 
BRANCH   7   8
ATOM      8  N   UNL     1      26.835  31.058  16.074  1.00  0.00    -0.248 N 
ATOM      9  C   UNL     1      30.428  31.722  15.956  1.00  0.00     0.070 C 
ATOM     10  C   UNL     1      29.025  31.187  15.977  1.00  0.00     0.080 A 
ATOM     11  C   UNL     1      27.866  31.915  16.101  1.00  0.00     0.134 A 
ATOM     12  N   UNL     1      28.665  29.900  15.879  1.00  0.00    -0.136 NA
ATOM     13  N   UNL     1      27.366  29.858  15.939  1.00  0.00    -0.067 NA
ENDBRANCH   7   8
ENDBRANCH   1   7
BRANCH   4  14
ATOM     14  O   UNL     1      22.428  28.684  12.261  1.00  0.00    -0.497 OA
ATOM     15  C   UNL     1      21.067  29.044  12.109  1.00  0.00     0.278 C 
ENDBRANCH   4  14
TORSDOF 3
BEGIN_RES LYS A 135
REMARK  4 active torsions:
REMARK  status: ('A' for Active; 'I' for Inactive)
REMARK    1  A    between atoms: CA   and  CB  
REMARK    2  A    between atoms: CB   and  CG  
REMARK    3  A    between atoms: CG   and  CD  
REMARK    4  A    between atoms: CD   and  CE  
ROOT
ATOM      1  CA  LYS A 135      33.193  34.663   9.290  1.00 25.02     0.186 C 
ENDROOT
BRANCH   1   2
ATOM      2  CB  LYS A 135      32.060  35.360  10.034  1.00 26.63     0.034 C 
BRANCH   2   3
ATOM      3  CG  LYS A 135      30.707  34.745   9.785  1.00 29.45     0.005 C 
BRANCH   3   4
ATOM      4  CD  LYS A 135      30.485  34.522   8.297  1.00 32.00     0.041 C 
BRANCH   4   5
ATOM      5  CE  LYS A 135      29.031  34.758   7.934  1.00 34.25     0.338 C 
ATOM      6  NZ  LYS A 135      28.121  34.124   8.927  1.00 35.99     0.618 N 
ENDBRANCH   4   5
ENDBRANCH   3   4
ENDBRANCH   2   3
ENDBRANCH   1   2
END_RES LYS A 135
BEGIN_RES TYR A 136
REMARK  2 active torsions:
REMARK  status: ('A' for Active; 'I' for Inactive)
REMARK    5  A    between atoms: CA   and  CB  
REMARK    6  A    between atoms: CB   and  CG  
ROOT
ATOM      7  CA  TYR A 136      36.583  36.399   8.994  1.00 26.14     0.191 C 
ENDROOT
BRANCH   7   8
ATOM      8  CB  TYR A 136      37.367  36.835  10.240  1.00 28.16     0.060 C 
BRANCH   8   9
ATOM      9  CG  TYR A 136      37.169  38.294  10.569  1.00 31.88    -0.020 A 
ATOM     10  CD2 TYR A 136      36.541  39.159   9.670  1.00 32.67    -0.002 A 
ATOM     11  CE2 TYR A 136      36.363  40.514   9.985  1.00 33.89     0.027 A 
ATOM     12  CZ  TYR A 136      36.819  41.007  11.210  1.00 34.34     0.131 A 
ATOM     13  OH  TYR A 136      36.647  42.343  11.546  1.00 35.14    -0.190 OA
ATOM     14  CE1 TYR A 136      37.446  40.162  12.114  1.00 35.01     0.027 A 
ATOM     15  CD1 TYR A 136      37.622  38.816  11.787  1.00 33.57    -0.002 A 
ENDBRANCH   8   9
ENDBRANCH   7   8
END_RES TYR A 136
BEGIN_RES ASN A 133
REMARK  2 active torsions:
REMARK  status: ('A' for Active; 'I' for Inactive)
REMARK    7  A    between atoms: CA   and  CB  
REMARK    8  A    between atoms: CB   and  CG  
ROOT
ATOM     16  CA  ASN A 133      31.225  30.257  11.749  1.00 18.15     0.196 C 
ENDROOT
BRANCH  16  17
ATOM     17  CB  ASN A 133      30.092  31.240  11.460  1.00 18.27     0.126 C 
BRANCH  17  18
ATOM     18  CG  ASN A 133      28.744  30.591  11.409  1.00 18.94     0.276 C 
ATOM     19  OD1 ASN A 133      28.515  29.654  10.641  1.00 18.09    -0.269 OA
ATOM     20  ND2 ASN A 133      27.826  31.089  12.237  1.00 18.93    -0.107 N 
ENDBRANCH  17  18
ENDBRANCH  16  17
END_RES ASN A 133
