REMARK VINA RESULT:    -3.084      8.112     11.363
REMARK INTER + INTRA:          -6.934
REMARK INTER:                  -3.680
REMARK INTRA:                  -3.253
REMARK UNBOUND:                -3.309
REMARK SMILES Cc1cn(CCC2OCCO2)nn1
REMARK SMILES IDX 5 1 4 2 1 3 2 4 3 5 13 6 12 7 6 8 7 9 8 10 11 11 9 12 10 13
REMARK H PARENT
REMARK Flexibility Score: inf
ROOT
ATOM      1  C   UNL     1      36.134  37.672   5.062  1.00  0.00     0.151 C 
ENDROOT
BRANCH   1   2
ATOM      2  N   UNL     1      37.117  37.649   4.011  1.00  0.00    -0.252 N 
ATOM      3  C   UNL     1      38.292  38.238   0.632  1.00  0.00     0.070 C 
ATOM      4  C   UNL     1      38.057  37.901   2.064  1.00  0.00     0.080 A 
ATOM      5  C   UNL     1      36.888  38.086   2.766  1.00  0.00     0.134 A 
ATOM      6  N   UNL     1      38.952  37.359   2.908  1.00  0.00    -0.136 NA
ATOM      7  N   UNL     1      38.363  37.215   4.083  1.00  0.00    -0.067 NA
ENDBRANCH   1   2
BRANCH   1   8
ATOM      8  C   UNL     1      35.391  38.964   5.000  1.00  0.00     0.086 C 
BRANCH   8   9
ATOM      9  C   UNL     1      35.213  39.603   6.363  1.00  0.00     0.251 C 
ATOM     10  O   UNL     1      35.078  40.966   6.295  1.00  0.00    -0.350 OA
ATOM     11  O   UNL     1      36.238  39.305   7.226  1.00  0.00    -0.350 OA
ATOM     12  C   UNL     1      36.030  41.542   7.102  1.00  0.00     0.192 C 
ATOM     13  C   UNL     1      37.064  40.440   7.212  1.00  0.00     0.192 C 
ENDBRANCH   8   9
ENDBRANCH   1   8
TORSDOF 3
BEGIN_RES LYS A 135
REMARK  4 active torsions:
REMARK  status: ('A' for Active; 'I' for Inactive)
REMARK    1  A    between atoms: CA   and  CB  
REMARK    2  A    between atoms: CB   and  CG  
REMARK    3  A    between atoms: CG   and  CD  
REMARK    4  A    between atoms: CD   and  CE  
ROOT
ATOM      1  CA  LYS A 135      33.193  34.663   9.290  1.00 25.02     0.186 C 
ENDROOT
BRANCH   1   2
ATOM      2  CB  LYS A 135      32.060  35.360  10.034  1.00 26.63     0.034 C 
BRANCH   2   3
ATOM      3  CG  LYS A 135      30.706  34.752   9.775  1.00 29.45     0.005 C 
BRANCH   3   4
ATOM      4  CD  LYS A 135      30.473  34.577   8.282  1.00 32.00     0.041 C 
BRANCH   4   5
ATOM      5  CE  LYS A 135      29.023  34.854   7.933  1.00 34.25     0.338 C 
ATOM      6  NZ  LYS A 135      28.912  35.576   6.636  1.00 35.99     0.618 N 
ENDBRANCH   4   5
ENDBRANCH   3   4
ENDBRANCH   2   3
ENDBRANCH   1   2
END_RES LYS A 135
BEGIN_RES TYR A 136
REMARK  2 active torsions:
REMARK  status: ('A' for Active; 'I' for Inactive)
REMARK    5  A    between atoms: CA   and  CB  
REMARK    6  A    between atoms: CB   and  CG  
ROOT
ATOM      7  CA  TYR A 136      36.583  36.399   8.994  1.00 26.14     0.191 C 
ENDROOT
BRANCH   7   8
ATOM      8  CB  TYR A 136      37.367  36.835  10.240  1.00 28.16     0.060 C 
BRANCH   8   9
ATOM      9  CG  TYR A 136      37.298  38.324  10.477  1.00 31.88    -0.020 A 
ATOM     10  CD2 TYR A 136      36.077  38.966  10.693  1.00 32.67    -0.002 A 
ATOM     11  CE2 TYR A 136      36.024  40.349  10.911  1.00 33.89     0.027 A 
ATOM     12  CZ  TYR A 136      37.204  41.097  10.912  1.00 34.34     0.131 A 
ATOM     13  OH  TYR A 136      37.176  42.467  11.133  1.00 35.14    -0.190 OA
ATOM     14  CE1 TYR A 136      38.425  40.476  10.699  1.00 35.01     0.027 A 
ATOM     15  CD1 TYR A 136      38.465  39.098  10.477  1.00 33.57    -0.002 A 
ENDBRANCH   8   9
ENDBRANCH   7   8
END_RES TYR A 136
BEGIN_RES ASN A 133
REMARK  2 active torsions:
REMARK  status: ('A' for Active; 'I' for Inactive)
REMARK    7  A    between atoms: CA   and  CB  
REMARK    8  A    between atoms: CB   and  CG  
ROOT
ATOM     16  CA  ASN A 133      31.225  30.257  11.749  1.00 18.15     0.196 C 
ENDROOT
BRANCH  16  17
ATOM     17  CB  ASN A 133      30.092  31.240  11.460  1.00 18.27     0.126 C 
BRANCH  17  18
ATOM     18  CG  ASN A 133      28.750  30.583  11.359  1.00 18.94     0.276 C 
ATOM     19  OD1 ASN A 133      28.568  29.613  10.621  1.00 18.09    -0.269 OA
ATOM     20  ND2 ASN A 133      27.784  31.113  12.108  1.00 18.93    -0.107 N 
ENDBRANCH  17  18
ENDBRANCH  16  17
END_RES ASN A 133
