REMARK VINA RESULT:    -3.807      6.680      6.955
REMARK INTER + INTRA:          -7.111
REMARK INTER:                  -4.930
REMARK INTRA:                  -2.181
REMARK UNBOUND:                -3.081
REMARK SMILES Cc1cn(-c2cccc(Cl)c2)nn1
REMARK SMILES IDX 5 1 6 2 7 3 8 4 9 5 10 6 11 7 4 8 1 9 2 10 3 11 13 12 12 13
REMARK H PARENT
REMARK Flexibility Score: inf
ROOT
ATOM      1  C   UNL     1      27.298  37.538   6.296  1.00  0.00     0.068 A 
ATOM      2  C   UNL     1      28.223  36.598   5.924  1.00  0.00     0.028 A 
ATOM      3  C   UNL     1      28.302  35.385   6.564  1.00  0.00     0.004 A 
ATOM      4  C   UNL     1      27.426  35.126   7.602  1.00  0.00     0.020 A 
ATOM      5  C   UNL     1      26.478  36.042   8.011  1.00  0.00     0.043 A 
ATOM      6  Cl  UNL     1      25.366  35.692   9.340  1.00  0.00    -0.084 Cl
ATOM      7  C   UNL     1      26.440  37.244   7.336  1.00  0.00     0.049 A 
ENDROOT
BRANCH   1   8
ATOM      8  N   UNL     1      27.200  38.816   5.636  1.00  0.00    -0.220 N 
ATOM      9  C   UNL     1      26.436  42.311   5.132  1.00  0.00     0.070 C 
ATOM     10  C   UNL     1      26.830  40.896   5.116  1.00  0.00     0.080 A 
ATOM     11  C   UNL     1      26.708  39.958   6.106  1.00  0.00     0.140 A 
ATOM     12  N   UNL     1      27.401  40.256   4.079  1.00  0.00    -0.135 NA
ATOM     13  N   UNL     1      27.623  39.000   4.396  1.00  0.00    -0.062 NA
ENDBRANCH   1   8
TORSDOF 1
BEGIN_RES LYS A 135
REMARK  4 active torsions:
REMARK  status: ('A' for Active; 'I' for Inactive)
REMARK    1  A    between atoms: CA   and  CB  
REMARK    2  A    between atoms: CB   and  CG  
REMARK    3  A    between atoms: CG   and  CD  
REMARK    4  A    between atoms: CD   and  CE  
ROOT
ATOM      1  CA  LYS A 135      33.193  34.663   9.290  1.00 25.02     0.186 C 
ENDROOT
BRANCH   1   2
ATOM      2  CB  LYS A 135      32.060  35.360  10.034  1.00 26.63     0.034 C 
BRANCH   2   3
ATOM      3  CG  LYS A 135      30.778  35.436   9.245  1.00 29.45     0.005 C 
BRANCH   3   4
ATOM      4  CD  LYS A 135      30.020  36.713   9.575  1.00 32.00     0.041 C 
BRANCH   4   5
ATOM      5  CE  LYS A 135      30.457  37.842   8.661  1.00 34.25     0.338 C 
ATOM      6  NZ  LYS A 135      29.507  38.987   8.732  1.00 35.99     0.618 N 
ENDBRANCH   4   5
ENDBRANCH   3   4
ENDBRANCH   2   3
ENDBRANCH   1   2
END_RES LYS A 135
BEGIN_RES TYR A 136
REMARK  2 active torsions:
REMARK  status: ('A' for Active; 'I' for Inactive)
REMARK    5  A    between atoms: CA   and  CB  
REMARK    6  A    between atoms: CB   and  CG  
ROOT
ATOM      7  CA  TYR A 136      36.583  36.399   8.994  1.00 26.14     0.191 C 
ENDROOT
BRANCH   7   8
ATOM      8  CB  TYR A 136      37.367  36.835  10.240  1.00 28.16     0.060 C 
BRANCH   8   9
ATOM      9  CG  TYR A 136      37.161  38.292  10.575  1.00 31.88    -0.020 A 
ATOM     10  CD2 TYR A 136      37.547  38.811  11.813  1.00 32.67    -0.002 A 
ATOM     11  CE2 TYR A 136      37.350  40.165  12.115  1.00 33.89     0.027 A 
ATOM     12  CZ  TYR A 136      36.759  41.008  11.169  1.00 34.34     0.131 A 
ATOM     13  OH  TYR A 136      36.561  42.354  11.444  1.00 35.14    -0.190 OA
ATOM     14  CE1 TYR A 136      36.368  40.509   9.935  1.00 35.01     0.027 A 
ATOM     15  CD1 TYR A 136      36.565  39.157   9.648  1.00 33.57    -0.002 A 
ENDBRANCH   8   9
ENDBRANCH   7   8
END_RES TYR A 136
BEGIN_RES ASN A 133
REMARK  2 active torsions:
REMARK  status: ('A' for Active; 'I' for Inactive)
REMARK    7  A    between atoms: CA   and  CB  
REMARK    8  A    between atoms: CB   and  CG  
ROOT
ATOM     16  CA  ASN A 133      31.225  30.257  11.749  1.00 18.15     0.196 C 
ENDROOT
BRANCH  16  17
ATOM     17  CB  ASN A 133      30.092  31.240  11.460  1.00 18.27     0.126 C 
BRANCH  17  18
ATOM     18  CG  ASN A 133      28.752  30.581  11.345  1.00 18.94     0.276 C 
ATOM     19  OD1 ASN A 133      28.584  29.598  10.622  1.00 18.09    -0.269 OA
ATOM     20  ND2 ASN A 133      27.772  31.125  12.066  1.00 18.93    -0.107 N 
ENDBRANCH  17  18
ENDBRANCH  16  17
END_RES ASN A 133
