REMARK VINA RESULT:    -4.371      3.193      4.194
REMARK INTER + INTRA:          -7.494
REMARK INTER:                  -4.359
REMARK INTRA:                  -3.135
REMARK UNBOUND:                -2.867
REMARK SMILES Cc1cn(-c2ccc(Cl)cc2)nn1
REMARK SMILES IDX 5 1 6 2 7 3 8 4 9 5 10 6 11 7 4 8 1 9 2 10 3 11 13 12 12 13
REMARK H PARENT
REMARK Flexibility Score: inf
ROOT
ATOM      1  C   UNL     1      35.763  34.706  13.477  1.00  0.00     0.066 A 
ATOM      2  C   UNL     1      36.715  35.212  14.339  1.00  0.00     0.030 A 
ATOM      3  C   UNL     1      38.058  34.973  14.206  1.00  0.00     0.023 A 
ATOM      4  C   UNL     1      38.510  34.181  13.155  1.00  0.00     0.041 A 
ATOM      5  Cl  UNL     1      40.223  33.858  12.961  1.00  0.00    -0.084 Cl
ATOM      6  C   UNL     1      37.569  33.661  12.276  1.00  0.00     0.023 A 
ATOM      7  C   UNL     1      36.221  33.920  12.437  1.00  0.00     0.030 A 
ENDROOT
BRANCH   1   8
ATOM      8  N   UNL     1      34.373  34.968  13.635  1.00  0.00    -0.220 N 
ATOM      9  C   UNL     1      31.178  36.549  12.737  1.00  0.00     0.070 C 
ATOM     10  C   UNL     1      32.329  35.800  13.292  1.00  0.00     0.080 A 
ATOM     11  C   UNL     1      33.631  35.788  12.843  1.00  0.00     0.140 A 
ATOM     12  N   UNL     1      32.305  34.983  14.355  1.00  0.00    -0.135 NA
ATOM     13  N   UNL     1      33.524  34.504  14.537  1.00  0.00    -0.062 NA
ENDBRANCH   1   8
TORSDOF 1
BEGIN_RES LYS A 135
REMARK  4 active torsions:
REMARK  status: ('A' for Active; 'I' for Inactive)
REMARK    1  A    between atoms: CA   and  CB  
REMARK    2  A    between atoms: CB   and  CG  
REMARK    3  A    between atoms: CG   and  CD  
REMARK    4  A    between atoms: CD   and  CE  
ROOT
ATOM      1  CA  LYS A 135      33.193  34.663   9.290  1.00 25.02     0.186 C 
ENDROOT
BRANCH   1   2
ATOM      2  CB  LYS A 135      32.060  35.360  10.034  1.00 26.63     0.034 C 
BRANCH   2   3
ATOM      3  CG  LYS A 135      30.835  35.589   9.187  1.00 29.45     0.005 C 
BRANCH   3   4
ATOM      4  CD  LYS A 135      30.235  34.265   8.741  1.00 32.00     0.041 C 
BRANCH   4   5
ATOM      5  CE  LYS A 135      28.741  34.404   8.522  1.00 34.25     0.338 C 
ATOM      6  NZ  LYS A 135      27.975  33.721   9.601  1.00 35.99     0.618 N 
ENDBRANCH   4   5
ENDBRANCH   3   4
ENDBRANCH   2   3
ENDBRANCH   1   2
END_RES LYS A 135
BEGIN_RES TYR A 136
REMARK  2 active torsions:
REMARK  status: ('A' for Active; 'I' for Inactive)
REMARK    5  A    between atoms: CA   and  CB  
REMARK    6  A    between atoms: CB   and  CG  
ROOT
ATOM      7  CA  TYR A 136      36.583  36.399   8.994  1.00 26.14     0.191 C 
ENDROOT
BRANCH   7   8
ATOM      8  CB  TYR A 136      37.367  36.835  10.240  1.00 28.16     0.060 C 
BRANCH   8   9
ATOM      9  CG  TYR A 136      36.766  38.047  10.909  1.00 31.88    -0.020 A 
ATOM     10  CD2 TYR A 136      36.185  39.073  10.160  1.00 32.67    -0.002 A 
ATOM     11  CE2 TYR A 136      35.631  40.195  10.792  1.00 33.89     0.027 A 
ATOM     12  CZ  TYR A 136      35.659  40.291  12.185  1.00 34.34     0.131 A 
ATOM     13  OH  TYR A 136      35.110  41.390  12.832  1.00 35.14    -0.190 OA
ATOM     14  CE1 TYR A 136      36.233  39.282  12.944  1.00 35.01     0.027 A 
ATOM     15  CD1 TYR A 136      36.787  38.172  12.304  1.00 33.57    -0.002 A 
ENDBRANCH   8   9
ENDBRANCH   7   8
END_RES TYR A 136
BEGIN_RES ASN A 133
REMARK  2 active torsions:
REMARK  status: ('A' for Active; 'I' for Inactive)
REMARK    7  A    between atoms: CA   and  CB  
REMARK    8  A    between atoms: CB   and  CG  
ROOT
ATOM     16  CA  ASN A 133      31.225  30.257  11.749  1.00 18.15     0.196 C 
ENDROOT
BRANCH  16  17
ATOM     17  CB  ASN A 133      30.092  31.240  11.460  1.00 18.27     0.126 C 
BRANCH  17  18
ATOM     18  CG  ASN A 133      28.751  30.583  11.354  1.00 18.94     0.276 C 
ATOM     19  OD1 ASN A 133      28.575  29.607  10.622  1.00 18.09    -0.269 OA
ATOM     20  ND2 ASN A 133      27.779  31.119  12.091  1.00 18.93    -0.107 N 
ENDBRANCH  17  18
ENDBRANCH  16  17
END_RES ASN A 133
