REMARK VINA RESULT:    -5.840      2.534      4.685
REMARK INTER + INTRA:          -9.976
REMARK INTER:                  -6.455
REMARK INTRA:                  -3.521
REMARK UNBOUND:                -2.941
REMARK SMILES Cc1cn(-c2ccc(S(=O)(=O)c3ccc(N)cc3)cc2)nn1
REMARK SMILES IDX 9 1 10 2 11 3 8 4 5 5 6 6 20 7 7 8 19 9 4 10 1 11 2 12 3 13
REMARK SMILES IDX 22 14 21 15 12 16 13 17 18 18 14 19 17 20 15 21 16 22
REMARK H PARENT 16 23 16 24
REMARK Flexibility Score: inf
ROOT
ATOM      1  S   UNL     1      34.744  36.436  14.686  1.00  0.00     0.206 S 
ATOM      2  O   UNL     1      34.067  35.781  15.877  1.00  0.00    -0.219 OA
ATOM      3  O   UNL     1      35.484  37.631  15.221  1.00  0.00    -0.219 OA
ENDROOT
BRANCH   1   4
ATOM      4  C   UNL     1      33.563  36.873  13.485  1.00  0.00     0.072 A 
ATOM      5  C   UNL     1      31.735  37.629  11.496  1.00  0.00     0.066 A 
ATOM      6  C   UNL     1      33.084  37.996  11.432  1.00  0.00     0.030 A 
ATOM      7  C   UNL     1      31.327  36.887  12.560  1.00  0.00     0.030 A 
ATOM      8  C   UNL     1      33.981  37.623  12.412  1.00  0.00     0.023 A 
ATOM      9  C   UNL     1      32.234  36.508  13.553  1.00  0.00     0.023 A 
BRANCH   5  10
ATOM     10  N   UNL     1      30.867  38.052  10.446  1.00  0.00    -0.220 N 
ATOM     11  C   UNL     1      27.812  38.974   8.687  1.00  0.00     0.070 C 
ATOM     12  C   UNL     1      29.149  38.643   9.206  1.00  0.00     0.080 A 
ATOM     13  C   UNL     1      29.551  38.226  10.456  1.00  0.00     0.140 A 
ATOM     14  N   UNL     1      30.279  38.709   8.458  1.00  0.00    -0.135 NA
ATOM     15  N   UNL     1      31.273  38.352   9.228  1.00  0.00    -0.062 NA
ENDBRANCH   5  10
ENDBRANCH   1   4
BRANCH   1  16
ATOM     16  C   UNL     1      35.941  35.328  14.030  1.00  0.00     0.072 A 
ATOM     17  C   UNL     1      37.220  35.243  14.539  1.00  0.00     0.023 A 
ATOM     18  C   UNL     1      35.624  34.498  12.966  1.00  0.00     0.023 A 
ATOM     19  C   UNL     1      38.163  34.364  14.016  1.00  0.00     0.027 A 
ATOM     20  C   UNL     1      36.568  33.620  12.445  1.00  0.00     0.027 A 
ATOM     21  C   UNL     1      37.844  33.544  12.963  1.00  0.00     0.031 A 
BRANCH  21  22
ATOM     22  N   UNL     1      38.827  32.652  12.444  1.00  0.00    -0.399 N 
ATOM     23  H   UNL     1      38.701  32.190  11.534  1.00  0.00     0.156 HD
ATOM     24  H   UNL     1      39.691  32.461  12.996  1.00  0.00     0.156 HD
ENDBRANCH  21  22
ENDBRANCH   1  16
TORSDOF 4
BEGIN_RES LYS A 135
REMARK  4 active torsions:
REMARK  status: ('A' for Active; 'I' for Inactive)
REMARK    1  A    between atoms: CA   and  CB  
REMARK    2  A    between atoms: CB   and  CG  
REMARK    3  A    between atoms: CG   and  CD  
REMARK    4  A    between atoms: CD   and  CE  
ROOT
ATOM      1  CA  LYS A 135      33.193  34.663   9.290  1.00 25.02     0.186 C 
ENDROOT
BRANCH   1   2
ATOM      2  CB  LYS A 135      32.060  35.360  10.034  1.00 26.63     0.034 C 
BRANCH   2   3
ATOM      3  CG  LYS A 135      30.704  34.758   9.768  1.00 29.45     0.005 C 
BRANCH   3   4
ATOM      4  CD  LYS A 135      30.427  34.701   8.273  1.00 32.00     0.041 C 
BRANCH   4   5
ATOM      5  CE  LYS A 135      28.973  35.028   7.989  1.00 34.25     0.338 C 
ATOM      6  NZ  LYS A 135      28.829  35.749   6.694  1.00 35.99     0.618 N 
ENDBRANCH   4   5
ENDBRANCH   3   4
ENDBRANCH   2   3
ENDBRANCH   1   2
END_RES LYS A 135
BEGIN_RES TYR A 136
REMARK  2 active torsions:
REMARK  status: ('A' for Active; 'I' for Inactive)
REMARK    5  A    between atoms: CA   and  CB  
REMARK    6  A    between atoms: CB   and  CG  
ROOT
ATOM      7  CA  TYR A 136      36.583  36.399   8.994  1.00 26.14     0.191 C 
ENDROOT
BRANCH   7   8
ATOM      8  CB  TYR A 136      37.367  36.835  10.240  1.00 28.16     0.060 C 
BRANCH   8   9
ATOM      9  CG  TYR A 136      36.993  38.221  10.706  1.00 31.88    -0.020 A 
ATOM     10  CD2 TYR A 136      37.300  38.658  11.996  1.00 32.67    -0.002 A 
ATOM     11  CE2 TYR A 136      36.947  39.946  12.419  1.00 33.89     0.027 A 
ATOM     12  CZ  TYR A 136      36.278  40.805  11.544  1.00 34.34     0.131 A 
ATOM     13  OH  TYR A 136      35.924  42.087  11.939  1.00 35.14    -0.190 OA
ATOM     14  CE1 TYR A 136      35.963  40.387  10.259  1.00 35.01     0.027 A 
ATOM     15  CD1 TYR A 136      36.315  39.099   9.851  1.00 33.57    -0.002 A 
ENDBRANCH   8   9
ENDBRANCH   7   8
END_RES TYR A 136
BEGIN_RES ASN A 133
REMARK  2 active torsions:
REMARK  status: ('A' for Active; 'I' for Inactive)
REMARK    7  A    between atoms: CA   and  CB  
REMARK    8  A    between atoms: CB   and  CG  
ROOT
ATOM     16  CA  ASN A 133      31.225  30.257  11.749  1.00 18.15     0.196 C 
ENDROOT
BRANCH  16  17
ATOM     17  CB  ASN A 133      30.092  31.240  11.460  1.00 18.27     0.126 C 
BRANCH  17  18
ATOM     18  CG  ASN A 133      28.755  30.579  11.329  1.00 18.94     0.276 C 
ATOM     19  OD1 ASN A 133      28.586  29.625  10.568  1.00 18.09    -0.269 OA
ATOM     20  ND2 ASN A 133      27.777  31.089  12.077  1.00 18.93    -0.107 N 
ENDBRANCH  17  18
ENDBRANCH  16  17
END_RES ASN A 133
