REMARK VINA RESULT:    -5.987      3.386      7.472
REMARK INTER + INTRA:         -10.989
REMARK INTER:                  -7.688
REMARK INTRA:                  -3.302
REMARK UNBOUND:                -3.778
REMARK SMILES Cc1cn(-c2ccc(-c3c4ccc(=O)cc-4oc4cc(O)ccc34)c(C(=O)[O-])c2)nn1
REMARK SMILES IDX 9 1 24 2 23 3 22 4 20 5 19 6 18 7 17 8 16 9 15 10 13 11
REMARK SMILES IDX 14 12 12 13 11 14 10 15 8 16 5 17 29 18 6 19 25 20 7 21 4 22
REMARK SMILES IDX 1 23 2 24 3 25 31 26 30 27 26 28 27 29 28 30 21 31
REMARK H PARENT 21 32
REMARK Flexibility Score: inf
ROOT
ATOM      1  C   UNL     1      38.757  35.458  14.049  1.00  0.00     0.004 A 
ATOM      2  C   UNL     1      39.116  35.060  15.318  1.00  0.00     0.026 A 
ATOM      3  C   UNL     1      38.150  34.914  16.290  1.00  0.00     0.016 A 
ATOM      4  C   UNL     1      38.467  34.516  17.580  1.00  0.00     0.047 A 
ATOM      5  C   UNL     1      39.790  34.265  17.873  1.00  0.00     0.119 A 
ATOM      6  C   UNL     1      40.758  34.410  16.901  1.00  0.00     0.093 A 
ATOM      7  C   UNL     1      40.452  34.810  15.599  1.00  0.00     0.139 A 
ATOM      8  O   UNL     1      41.400  34.938  14.698  1.00  0.00    -0.456 OA
ATOM      9  C   UNL     1      41.161  35.306  13.479  1.00  0.00     0.139 A 
ATOM     10  C   UNL     1      42.125  35.450  12.510  1.00  0.00     0.099 A 
ATOM     11  C   UNL     1      41.745  35.849  11.250  1.00  0.00     0.182 A 
ATOM     12  O   UNL     1      42.634  35.979  10.372  1.00  0.00    -0.290 OA
ATOM     13  C   UNL     1      40.428  36.111  10.918  1.00  0.00     0.053 A 
ATOM     14  C   UNL     1      39.411  35.987  11.838  1.00  0.00     0.016 A 
ATOM     15  C   UNL     1      39.765  35.586  13.117  1.00  0.00     0.026 A 
ENDROOT
BRANCH   1  16
ATOM     16  C   UNL     1      37.361  35.716  13.764  1.00  0.00    -0.008 A 
ATOM     17  C   UNL     1      34.661  36.146  13.186  1.00  0.00     0.067 A 
ATOM     18  C   UNL     1      35.252  34.944  12.859  1.00  0.00     0.039 A 
ATOM     19  C   UNL     1      35.407  37.140  13.803  1.00  0.00     0.029 A 
ATOM     20  C   UNL     1      36.590  34.750  13.152  1.00  0.00     0.007 A 
ATOM     21  C   UNL     1      36.745  36.913  14.083  1.00  0.00     0.012 A 
BRANCH  17  22
ATOM     22  N   UNL     1      33.291  36.402  12.909  1.00  0.00    -0.220 N 
ATOM     23  C   UNL     1      29.720  35.516  13.032  1.00  0.00     0.070 C 
ATOM     24  C   UNL     1      31.076  36.110  12.845  1.00  0.00     0.080 A 
ATOM     25  C   UNL     1      32.272  35.565  13.263  1.00  0.00     0.140 A 
ATOM     26  N   UNL     1      31.407  37.268  12.246  1.00  0.00    -0.135 NA
ATOM     27  N   UNL     1      32.731  37.411  12.301  1.00  0.00    -0.062 NA
ENDBRANCH  17  22
BRANCH  20  28
ATOM     28  C   UNL     1      37.201  33.474  12.800  1.00  0.00     0.072 C 
ATOM     29  O   UNL     1      37.367  33.128  11.608  1.00  0.00    -0.545 OA
ATOM     30  O   UNL     1      37.628  32.592  13.783  1.00  0.00    -0.545 OA
ENDBRANCH  20  28
ENDBRANCH   1  16
BRANCH   5  31
ATOM     31  O   UNL     1      40.121  33.860  19.176  1.00  0.00    -0.508 OA
ATOM     32  H   UNL     1      39.422  33.427  19.762  1.00  0.00     0.293 HD
ENDBRANCH   5  31
TORSDOF 4
BEGIN_RES LYS A 135
REMARK  4 active torsions:
REMARK  status: ('A' for Active; 'I' for Inactive)
REMARK    1  A    between atoms: CA   and  CB  
REMARK    2  A    between atoms: CB   and  CG  
REMARK    3  A    between atoms: CG   and  CD  
REMARK    4  A    between atoms: CD   and  CE  
ROOT
ATOM      1  CA  LYS A 135      33.193  34.663   9.290  1.00 25.02     0.186 C 
ENDROOT
BRANCH   1   2
ATOM      2  CB  LYS A 135      32.060  35.360  10.034  1.00 26.63     0.034 C 
BRANCH   2   3
ATOM      3  CG  LYS A 135      30.833  35.586   9.188  1.00 29.45     0.005 C 
BRANCH   3   4
ATOM      4  CD  LYS A 135      30.297  34.266   8.657  1.00 32.00     0.041 C 
BRANCH   4   5
ATOM      5  CE  LYS A 135      28.780  34.276   8.638  1.00 34.25     0.338 C 
ATOM      6  NZ  LYS A 135      28.225  34.076  10.006  1.00 35.99     0.618 N 
ENDBRANCH   4   5
ENDBRANCH   3   4
ENDBRANCH   2   3
ENDBRANCH   1   2
END_RES LYS A 135
BEGIN_RES TYR A 136
REMARK  2 active torsions:
REMARK  status: ('A' for Active; 'I' for Inactive)
REMARK    5  A    between atoms: CA   and  CB  
REMARK    6  A    between atoms: CB   and  CG  
ROOT
ATOM      7  CA  TYR A 136      36.583  36.399   8.994  1.00 26.14     0.191 C 
ENDROOT
BRANCH   7   8
ATOM      8  CB  TYR A 136      37.367  36.835  10.240  1.00 28.16     0.060 C 
BRANCH   8   9
ATOM      9  CG  TYR A 136      37.046  38.247  10.663  1.00 31.88    -0.020 A 
ATOM     10  CD2 TYR A 136      38.029  39.084  11.196  1.00 32.67    -0.002 A 
ATOM     11  CE2 TYR A 136      37.720  40.394  11.587  1.00 33.89     0.027 A 
ATOM     12  CZ  TYR A 136      36.414  40.871  11.444  1.00 34.34     0.131 A 
ATOM     13  OH  TYR A 136      36.087  42.166  11.819  1.00 35.14    -0.190 OA
ATOM     14  CE1 TYR A 136      35.425  40.053  10.918  1.00 35.01     0.027 A 
ATOM     15  CD1 TYR A 136      35.744  38.748  10.538  1.00 33.57    -0.002 A 
ENDBRANCH   8   9
ENDBRANCH   7   8
END_RES TYR A 136
BEGIN_RES ASN A 133
REMARK  2 active torsions:
REMARK  status: ('A' for Active; 'I' for Inactive)
REMARK    7  A    between atoms: CA   and  CB  
REMARK    8  A    between atoms: CB   and  CG  
ROOT
ATOM     16  CA  ASN A 133      31.225  30.257  11.749  1.00 18.15     0.196 C 
ENDROOT
BRANCH  16  17
ATOM     17  CB  ASN A 133      30.092  31.240  11.460  1.00 18.27     0.126 C 
BRANCH  17  18
ATOM     18  CG  ASN A 133      28.754  30.580  11.335  1.00 18.94     0.276 C 
ATOM     19  OD1 ASN A 133      28.584  29.619  10.582  1.00 18.09    -0.269 OA
ATOM     20  ND2 ASN A 133      27.777  31.097  12.080  1.00 18.93    -0.107 N 
ENDBRANCH  17  18
ENDBRANCH  16  17
END_RES ASN A 133
