REMARK VINA RESULT:    -2.771      8.060     13.053
REMARK INTER + INTRA:          -6.787
REMARK INTER:                  -3.468
REMARK INTRA:                  -3.318
REMARK UNBOUND:                -3.368
REMARK SMILES CCOC(=O)Cn1cc(C)nn1
REMARK SMILES IDX 4 1 5 2 6 3 7 4 10 5 9 6 8 7 11 8 12 9 3 10 2 11 1 12
REMARK H PARENT
REMARK Flexibility Score: inf
ROOT
ATOM      1  C   UNL     1      35.625  36.236  13.215  1.00  0.00     0.327 C 
ATOM      2  O   UNL     1      35.976  36.950  14.206  1.00  0.00    -0.250 OA
ENDROOT
BRANCH   1   3
ATOM      3  C   UNL     1      34.231  36.345  12.750  1.00  0.00     0.268 C 
BRANCH   3   4
ATOM      4  N   UNL     1      33.292  35.817  13.706  1.00  0.00    -0.241 N 
ATOM      5  C   UNL     1      31.750  33.420  15.974  1.00  0.00     0.070 C 
ATOM      6  C   UNL     1      32.200  34.542  15.110  1.00  0.00     0.080 A 
ATOM      7  C   UNL     1      33.285  34.623  14.282  1.00  0.00     0.134 A 
ATOM      8  N   UNL     1      31.546  35.733  15.021  1.00  0.00    -0.136 NA
ATOM      9  N   UNL     1      32.232  36.461  14.174  1.00  0.00    -0.067 NA
ENDBRANCH   3   4
ENDBRANCH   1   3
BRANCH   1  10
ATOM     10  O   UNL     1      36.601  35.433  12.681  1.00  0.00    -0.465 OA
BRANCH  10  11
ATOM     11  C   UNL     1      36.792  34.091  13.133  1.00  0.00     0.229 C 
ATOM     12  C   UNL     1      37.275  33.196  12.046  1.00  0.00     0.049 C 
ENDBRANCH  10  11
ENDBRANCH   1  10
TORSDOF 4
BEGIN_RES LYS A 135
REMARK  4 active torsions:
REMARK  status: ('A' for Active; 'I' for Inactive)
REMARK    1  A    between atoms: CA   and  CB  
REMARK    2  A    between atoms: CB   and  CG  
REMARK    3  A    between atoms: CG   and  CD  
REMARK    4  A    between atoms: CD   and  CE  
ROOT
ATOM      1  CA  LYS A 135      33.193  34.663   9.290  1.00 25.02     0.186 C 
ENDROOT
BRANCH   1   2
ATOM      2  CB  LYS A 135      32.060  35.360  10.034  1.00 26.63     0.034 C 
BRANCH   2   3
ATOM      3  CG  LYS A 135      30.815  35.540   9.204  1.00 29.45     0.005 C 
BRANCH   3   4
ATOM      4  CD  LYS A 135      30.181  34.194   8.889  1.00 32.00     0.041 C 
BRANCH   4   5
ATOM      5  CE  LYS A 135      28.705  34.359   8.584  1.00 34.25     0.338 C 
ATOM      6  NZ  LYS A 135      27.866  33.688   9.616  1.00 35.99     0.618 N 
ENDBRANCH   4   5
ENDBRANCH   3   4
ENDBRANCH   2   3
ENDBRANCH   1   2
END_RES LYS A 135
BEGIN_RES TYR A 136
REMARK  2 active torsions:
REMARK  status: ('A' for Active; 'I' for Inactive)
REMARK    5  A    between atoms: CA   and  CB  
REMARK    6  A    between atoms: CB   and  CG  
ROOT
ATOM      7  CA  TYR A 136      36.583  36.399   8.994  1.00 26.14     0.191 C 
ENDROOT
BRANCH   7   8
ATOM      8  CB  TYR A 136      37.367  36.835  10.240  1.00 28.16     0.060 C 
BRANCH   8   9
ATOM      9  CG  TYR A 136      37.326  38.327  10.458  1.00 31.88    -0.020 A 
ATOM     10  CD2 TYR A 136      36.136  38.977  10.791  1.00 32.67    -0.002 A 
ATOM     11  CE2 TYR A 136      36.108  40.365  10.990  1.00 33.89     0.027 A 
ATOM     12  CZ  TYR A 136      37.283  41.108  10.854  1.00 34.34     0.131 A 
ATOM     13  OH  TYR A 136      37.281  42.482  11.053  1.00 35.14    -0.190 OA
ATOM     14  CE1 TYR A 136      38.475  40.479  10.523  1.00 35.01     0.027 A 
ATOM     15  CD1 TYR A 136      38.488  39.098  10.321  1.00 33.57    -0.002 A 
ENDBRANCH   8   9
ENDBRANCH   7   8
END_RES TYR A 136
BEGIN_RES ASN A 133
REMARK  2 active torsions:
REMARK  status: ('A' for Active; 'I' for Inactive)
REMARK    7  A    between atoms: CA   and  CB  
REMARK    8  A    between atoms: CB   and  CG  
ROOT
ATOM     16  CA  ASN A 133      31.225  30.257  11.749  1.00 18.15     0.196 C 
ENDROOT
BRANCH  16  17
ATOM     17  CB  ASN A 133      30.092  31.240  11.460  1.00 18.27     0.126 C 
BRANCH  17  18
ATOM     18  CG  ASN A 133      28.749  30.584  11.364  1.00 18.94     0.276 C 
ATOM     19  OD1 ASN A 133      28.566  29.610  10.631  1.00 18.09    -0.269 OA
ATOM     20  ND2 ASN A 133      27.785  31.119  12.112  1.00 18.93    -0.107 N 
ENDBRANCH  17  18
ENDBRANCH  16  17
END_RES ASN A 133
