REMARK VINA RESULT:    -3.791      2.638      3.985
REMARK INTER + INTRA:          -8.558
REMARK INTER:                  -4.814
REMARK INTRA:                  -3.744
REMARK UNBOUND:                -3.327
REMARK SMILES Cc1cn(CCCCCC(=O)O)nn1
REMARK SMILES IDX 7 1 6 2 5 3 4 4 1 5 2 6 3 7 14 8 13 9 8 10 9 11 10 12 11 13
REMARK SMILES IDX 12 14
REMARK H PARENT 12 15
REMARK Flexibility Score: inf
ROOT
ATOM      1  C   UNL     1      36.018  35.650  14.737  1.00  0.00     0.002 C 
ENDROOT
BRANCH   1   2
ATOM      2  C   UNL     1      37.402  35.296  15.243  1.00  0.00     0.024 C 
BRANCH   2   3
ATOM      3  C   UNL     1      38.332  36.422  14.795  1.00  0.00     0.146 C 
BRANCH   3   4
ATOM      4  N   UNL     1      39.241  35.928  13.752  1.00  0.00    -0.252 N 
ATOM      5  C   UNL     1      41.809  33.627  12.492  1.00  0.00     0.070 C 
ATOM      6  C   UNL     1      40.780  34.689  12.738  1.00  0.00     0.080 A 
ATOM      7  C   UNL     1      40.072  34.878  13.913  1.00  0.00     0.134 A 
ATOM      8  N   UNL     1      40.343  35.639  11.905  1.00  0.00    -0.136 NA
ATOM      9  N   UNL     1      39.421  36.372  12.533  1.00  0.00    -0.067 NA
ENDBRANCH   3   4
ENDBRANCH   2   3
ENDBRANCH   1   2
BRANCH   1  10
ATOM     10  C   UNL     1      35.950  35.547  13.223  1.00  0.00     0.012 C 
BRANCH  10  11
ATOM     11  C   UNL     1      35.886  34.087  12.869  1.00  0.00     0.122 C 
BRANCH  11  12
ATOM     12  C   UNL     1      37.093  33.645  12.134  1.00  0.00     0.303 C 
ATOM     13  O   UNL     1      37.659  32.585  12.495  1.00  0.00    -0.252 OA
BRANCH  12  14
ATOM     14  O   UNL     1      37.622  34.349  11.067  1.00  0.00    -0.481 OA
ATOM     15  H   UNL     1      37.843  33.916  10.179  1.00  0.00     0.296 HD
ENDBRANCH  12  14
ENDBRANCH  11  12
ENDBRANCH  10  11
ENDBRANCH   1  10
TORSDOF 7
BEGIN_RES LYS A 135
REMARK  4 active torsions:
REMARK  status: ('A' for Active; 'I' for Inactive)
REMARK    1  A    between atoms: CA   and  CB  
REMARK    2  A    between atoms: CB   and  CG  
REMARK    3  A    between atoms: CG   and  CD  
REMARK    4  A    between atoms: CD   and  CE  
ROOT
ATOM      1  CA  LYS A 135      33.193  34.663   9.290  1.00 25.02     0.186 C 
ENDROOT
BRANCH   1   2
ATOM      2  CB  LYS A 135      32.060  35.360  10.034  1.00 26.63     0.034 C 
BRANCH   2   3
ATOM      3  CG  LYS A 135      30.777  34.570  10.054  1.00 29.45     0.005 C 
BRANCH   3   4
ATOM      4  CD  LYS A 135      30.271  34.332   8.640  1.00 32.00     0.041 C 
BRANCH   4   5
ATOM      5  CE  LYS A 135      29.654  35.597   8.074  1.00 34.25     0.338 C 
ATOM      6  NZ  LYS A 135      28.496  35.282   7.194  1.00 35.99     0.618 N 
ENDBRANCH   4   5
ENDBRANCH   3   4
ENDBRANCH   2   3
ENDBRANCH   1   2
END_RES LYS A 135
BEGIN_RES TYR A 136
REMARK  2 active torsions:
REMARK  status: ('A' for Active; 'I' for Inactive)
REMARK    5  A    between atoms: CA   and  CB  
REMARK    6  A    between atoms: CB   and  CG  
ROOT
ATOM      7  CA  TYR A 136      36.583  36.399   8.994  1.00 26.14     0.191 C 
ENDROOT
BRANCH   7   8
ATOM      8  CB  TYR A 136      37.367  36.835  10.240  1.00 28.16     0.060 C 
BRANCH   8   9
ATOM      9  CG  TYR A 136      37.138  38.284  10.592  1.00 31.88    -0.020 A 
ATOM     10  CD2 TYR A 136      38.115  39.252  10.345  1.00 32.67    -0.002 A 
ATOM     11  CE2 TYR A 136      37.893  40.595  10.678  1.00 33.89     0.027 A 
ATOM     12  CZ  TYR A 136      36.682  40.974  11.263  1.00 34.34     0.131 A 
ATOM     13  OH  TYR A 136      36.437  42.299  11.594  1.00 35.14    -0.190 OA
ATOM     14  CE1 TYR A 136      35.701  40.026  11.516  1.00 35.01     0.027 A 
ATOM     15  CD1 TYR A 136      35.936  38.690  11.186  1.00 33.57    -0.002 A 
ENDBRANCH   8   9
ENDBRANCH   7   8
END_RES TYR A 136
BEGIN_RES ASN A 133
REMARK  2 active torsions:
REMARK  status: ('A' for Active; 'I' for Inactive)
REMARK    7  A    between atoms: CA   and  CB  
REMARK    8  A    between atoms: CB   and  CG  
ROOT
ATOM     16  CA  ASN A 133      31.225  30.257  11.749  1.00 18.15     0.196 C 
ENDROOT
BRANCH  16  17
ATOM     17  CB  ASN A 133      30.092  31.240  11.460  1.00 18.27     0.126 C 
BRANCH  17  18
ATOM     18  CG  ASN A 133      28.749  30.584  11.368  1.00 18.94     0.276 C 
ATOM     19  OD1 ASN A 133      28.563  29.611  10.635  1.00 18.09    -0.269 OA
ATOM     20  ND2 ASN A 133      27.787  31.119  12.118  1.00 18.93    -0.107 N 
ENDBRANCH  17  18
ENDBRANCH  16  17
END_RES ASN A 133
