REMARK VINA RESULT:    -4.045      2.602      3.229
REMARK INTER + INTRA:          -7.828
REMARK INTER:                  -4.893
REMARK INTRA:                  -2.935
REMARK UNBOUND:                -3.310
REMARK SMILES Cc1cn(-c2cc(Cl)ccc2C(=O)N(C)C)nn1
REMARK SMILES IDX 5 1 6 2 7 3 8 4 9 5 10 6 11 7 4 8 1 9 2 10 3 11 18 12 17 13
REMARK SMILES IDX 12 14 13 15 14 16 15 17 16 18
REMARK H PARENT
REMARK Flexibility Score: inf
ROOT
ATOM      1  C   UNL     1      36.627  36.910  14.179  1.00  0.00     0.081 A 
ATOM      2  C   UNL     1      36.585  38.305  14.307  1.00  0.00     0.049 A 
ATOM      3  C   UNL     1      37.747  39.029  14.471  1.00  0.00     0.043 A 
ATOM      4  Cl  UNL     1      37.677  40.781  14.633  1.00  0.00    -0.084 Cl
ATOM      5  C   UNL     1      38.972  38.399  14.513  1.00  0.00     0.021 A 
ATOM      6  C   UNL     1      39.007  37.030  14.385  1.00  0.00     0.017 A 
ATOM      7  C   UNL     1      37.856  36.313  14.223  1.00  0.00     0.065 A 
ENDROOT
BRANCH   1   8
ATOM      8  N   UNL     1      35.422  36.175  14.009  1.00  0.00    -0.220 N 
ATOM      9  C   UNL     1      32.461  34.298  15.087  1.00  0.00     0.070 C 
ATOM     10  C   UNL     1      33.567  35.014  14.382  1.00  0.00     0.080 A 
ATOM     11  C   UNL     1      34.658  35.658  14.974  1.00  0.00     0.140 A 
ATOM     12  N   UNL     1      33.739  35.182  13.063  1.00  0.00    -0.135 NA
ATOM     13  N   UNL     1      34.845  35.873  12.880  1.00  0.00    -0.062 NA
ENDBRANCH   1   8
BRANCH   7  14
ATOM     14  C   UNL     1      37.929  34.854  14.090  1.00  0.00     0.255 C 
ATOM     15  O   UNL     1      37.847  34.103  15.090  1.00  0.00    -0.269 OA
ATOM     16  N   UNL     1      38.098  34.312  12.785  1.00  0.00    -0.345 N 
ATOM     17  C   UNL     1      38.174  32.853  12.630  1.00  0.00     0.146 C 
ATOM     18  C   UNL     1      38.197  35.137  11.620  1.00  0.00     0.146 C 
ENDBRANCH   7  14
TORSDOF 2
BEGIN_RES LYS A 135
REMARK  4 active torsions:
REMARK  status: ('A' for Active; 'I' for Inactive)
REMARK    1  A    between atoms: CA   and  CB  
REMARK    2  A    between atoms: CB   and  CG  
REMARK    3  A    between atoms: CG   and  CD  
REMARK    4  A    between atoms: CD   and  CE  
ROOT
ATOM      1  CA  LYS A 135      33.193  34.663   9.290  1.00 25.02     0.186 C 
ENDROOT
BRANCH   1   2
ATOM      2  CB  LYS A 135      32.060  35.360  10.034  1.00 26.63     0.034 C 
BRANCH   2   3
ATOM      3  CG  LYS A 135      30.706  34.752   9.776  1.00 29.45     0.005 C 
BRANCH   3   4
ATOM      4  CD  LYS A 135      30.475  34.568   8.284  1.00 32.00     0.041 C 
BRANCH   4   5
ATOM      5  CE  LYS A 135      29.026  34.840   7.931  1.00 34.25     0.338 C 
ATOM      6  NZ  LYS A 135      28.917  35.583   6.645  1.00 35.99     0.618 N 
ENDBRANCH   4   5
ENDBRANCH   3   4
ENDBRANCH   2   3
ENDBRANCH   1   2
END_RES LYS A 135
BEGIN_RES TYR A 136
REMARK  2 active torsions:
REMARK  status: ('A' for Active; 'I' for Inactive)
REMARK    5  A    between atoms: CA   and  CB  
REMARK    6  A    between atoms: CB   and  CG  
ROOT
ATOM      7  CA  TYR A 136      36.583  36.399   8.994  1.00 26.14     0.191 C 
ENDROOT
BRANCH   7   8
ATOM      8  CB  TYR A 136      37.367  36.835  10.240  1.00 28.16     0.060 C 
BRANCH   8   9
ATOM      9  CG  TYR A 136      37.161  38.292  10.575  1.00 31.88    -0.020 A 
ATOM     10  CD2 TYR A 136      35.879  38.822  10.737  1.00 32.67    -0.002 A 
ATOM     11  CE2 TYR A 136      35.698  40.177  11.046  1.00 33.89     0.027 A 
ATOM     12  CZ  TYR A 136      36.810  41.009  11.195  1.00 34.34     0.131 A 
ATOM     13  OH  TYR A 136      36.655  42.352  11.508  1.00 35.14    -0.190 OA
ATOM     14  CE1 TYR A 136      38.091  40.499  11.036  1.00 35.01     0.027 A 
ATOM     15  CD1 TYR A 136      38.258  39.150  10.722  1.00 33.57    -0.002 A 
ENDBRANCH   8   9
ENDBRANCH   7   8
END_RES TYR A 136
BEGIN_RES ASN A 133
REMARK  2 active torsions:
REMARK  status: ('A' for Active; 'I' for Inactive)
REMARK    7  A    between atoms: CA   and  CB  
REMARK    8  A    between atoms: CB   and  CG  
ROOT
ATOM     16  CA  ASN A 133      31.225  30.257  11.749  1.00 18.15     0.196 C 
ENDROOT
BRANCH  16  17
ATOM     17  CB  ASN A 133      30.092  31.240  11.460  1.00 18.27     0.126 C 
BRANCH  17  18
ATOM     18  CG  ASN A 133      28.749  30.585  11.370  1.00 18.94     0.276 C 
ATOM     19  OD1 ASN A 133      27.806  30.963  12.068  1.00 18.09    -0.269 OA
ATOM     20  ND2 ASN A 133      28.647  29.581  10.500  1.00 18.93    -0.107 N 
ENDBRANCH  17  18
ENDBRANCH  16  17
END_RES ASN A 133
