REMARK VINA RESULT:    -4.261      4.817      8.220
REMARK INTER + INTRA:          -7.598
REMARK INTER:                  -4.760
REMARK INTRA:                  -2.839
REMARK UNBOUND:                -2.839
REMARK SMILES Cc1cn(-c2ncn3c2c(=O)n(C(C)C)c2ccccc23)nn1
REMARK SMILES IDX 5 1 6 2 7 3 8 4 21 5 20 6 19 7 18 8 17 9 16 10 12 11 10 12
REMARK SMILES IDX 11 13 9 14 4 15 1 16 2 17 3 18 23 19 22 20 13 21 14 22 15 23
REMARK H PARENT
REMARK Flexibility Score: inf
ROOT
ATOM      1  C   UNL     1      28.921  34.591  13.241  1.00  0.00     0.186 A 
ATOM      2  N   UNL     1      29.300  33.546  13.990  1.00  0.00    -0.216 NA
ATOM      3  C   UNL     1      30.567  33.692  14.412  1.00  0.00     0.207 A 
ATOM      4  N   UNL     1      31.010  34.874  13.913  1.00  0.00    -0.291 N 
ATOM      5  C   UNL     1      32.195  35.525  14.014  1.00  0.00     0.071 A 
ATOM      6  C   UNL     1      33.161  34.894  14.765  1.00  0.00     0.029 A 
ATOM      7  C   UNL     1      34.371  35.537  14.888  1.00  0.00     0.002 A 
ATOM      8  C   UNL     1      34.615  36.750  14.293  1.00  0.00     0.002 A 
ATOM      9  C   UNL     1      33.643  37.360  13.550  1.00  0.00     0.028 A 
ATOM     10  C   UNL     1      32.423  36.740  13.410  1.00  0.00     0.068 A 
ATOM     11  N   UNL     1      31.394  37.287  12.686  1.00  0.00    -0.302 N 
ATOM     12  C   UNL     1      30.214  36.654  12.577  1.00  0.00     0.279 A 
ATOM     13  O   UNL     1      29.227  37.097  11.932  1.00  0.00    -0.267 OA
ATOM     14  C   UNL     1      30.017  35.436  13.195  1.00  0.00     0.158 A 
ENDROOT
BRANCH   1  15
ATOM     15  N   UNL     1      27.642  34.802  12.609  1.00  0.00    -0.200 N 
ATOM     16  C   UNL     1      24.168  35.853  12.457  1.00  0.00     0.070 C 
ATOM     17  C   UNL     1      25.553  35.346  12.233  1.00  0.00     0.080 A 
ATOM     18  C   UNL     1      26.541  35.325  13.181  1.00  0.00     0.142 A 
ATOM     19  N   UNL     1      26.062  34.841  11.111  1.00  0.00    -0.135 NA
ATOM     20  N   UNL     1      27.324  34.518  11.359  1.00  0.00    -0.061 NA
ENDBRANCH   1  15
BRANCH  11  21
ATOM     21  C   UNL     1      31.637  38.539  12.058  1.00  0.00     0.085 C 
ATOM     22  C   UNL     1      31.643  38.405  10.554  1.00  0.00     0.031 C 
ATOM     23  C   UNL     1      30.621  39.605  12.409  1.00  0.00     0.031 C 
ENDBRANCH  11  21
TORSDOF 2
BEGIN_RES LYS A 135
REMARK  4 active torsions:
REMARK  status: ('A' for Active; 'I' for Inactive)
REMARK    1  A    between atoms: CA   and  CB  
REMARK    2  A    between atoms: CB   and  CG  
REMARK    3  A    between atoms: CG   and  CD  
REMARK    4  A    between atoms: CD   and  CE  
ROOT
ATOM      1  CA  LYS A 135      33.193  34.663   9.290  1.00 25.02     0.186 C 
ENDROOT
BRANCH   1   2
ATOM      2  CB  LYS A 135      32.060  35.360  10.034  1.00 26.63     0.034 C 
BRANCH   2   3
ATOM      3  CG  LYS A 135      30.703  34.763   9.762  1.00 29.45     0.005 C 
BRANCH   3   4
ATOM      4  CD  LYS A 135      30.468  34.625   8.266  1.00 32.00     0.041 C 
BRANCH   4   5
ATOM      5  CE  LYS A 135      29.024  34.940   7.923  1.00 34.25     0.338 C 
ATOM      6  NZ  LYS A 135      28.915  35.554   6.571  1.00 35.99     0.618 N 
ENDBRANCH   4   5
ENDBRANCH   3   4
ENDBRANCH   2   3
ENDBRANCH   1   2
END_RES LYS A 135
BEGIN_RES TYR A 136
REMARK  2 active torsions:
REMARK  status: ('A' for Active; 'I' for Inactive)
REMARK    5  A    between atoms: CA   and  CB  
REMARK    6  A    between atoms: CB   and  CG  
ROOT
ATOM      7  CA  TYR A 136      36.583  36.399   8.994  1.00 26.14     0.191 C 
ENDROOT
BRANCH   7   8
ATOM      8  CB  TYR A 136      37.367  36.835  10.240  1.00 28.16     0.060 C 
BRANCH   8   9
ATOM      9  CG  TYR A 136      36.755  38.035  10.920  1.00 31.88    -0.020 A 
ATOM     10  CD2 TYR A 136      35.732  38.767  10.313  1.00 32.67    -0.002 A 
ATOM     11  CE2 TYR A 136      35.171  39.881  10.953  1.00 33.89     0.027 A 
ATOM     12  CZ  TYR A 136      35.639  40.266  12.211  1.00 34.34     0.131 A 
ATOM     13  OH  TYR A 136      35.094  41.362  12.866  1.00 35.14    -0.190 OA
ATOM     14  CE1 TYR A 136      36.655  39.551  12.829  1.00 35.01     0.027 A 
ATOM     15  CD1 TYR A 136      37.210  38.448  12.179  1.00 33.57    -0.002 A 
ENDBRANCH   8   9
ENDBRANCH   7   8
END_RES TYR A 136
BEGIN_RES ASN A 133
REMARK  2 active torsions:
REMARK  status: ('A' for Active; 'I' for Inactive)
REMARK    7  A    between atoms: CA   and  CB  
REMARK    8  A    between atoms: CB   and  CG  
ROOT
ATOM     16  CA  ASN A 133      31.225  30.257  11.749  1.00 18.15     0.196 C 
ENDROOT
BRANCH  16  17
ATOM     17  CB  ASN A 133      30.092  31.240  11.460  1.00 18.27     0.126 C 
BRANCH  17  18
ATOM     18  CG  ASN A 133      28.754  30.580  11.336  1.00 18.94     0.276 C 
ATOM     19  OD1 ASN A 133      28.589  29.604  10.602  1.00 18.09    -0.269 OA
ATOM     20  ND2 ASN A 133      27.771  31.115  12.060  1.00 18.93    -0.107 N 
ENDBRANCH  17  18
ENDBRANCH  16  17
END_RES ASN A 133
