REMARK VINA RESULT:    -4.341      3.453      4.827
REMARK INTER + INTRA:          -6.921
REMARK INTER:                  -3.750
REMARK INTRA:                  -3.172
REMARK UNBOUND:                -2.327
REMARK SMILES Cc1cn(-c2ccc(Br)cc2)nn1
REMARK SMILES IDX 5 1 6 2 7 3 8 4 9 5 10 6 11 7 4 8 1 9 2 10 3 11 13 12 12 13
REMARK H PARENT
REMARK Flexibility Score: inf
ROOT
ATOM      1  C   UNL     1      27.545  29.596  17.509  1.00  0.00     0.066 A 
ATOM      2  C   UNL     1      27.881  29.243  18.816  1.00  0.00     0.029 A 
ATOM      3  C   UNL     1      27.089  28.423  19.563  1.00  0.00     0.018 A 
ATOM      4  C   UNL     1      25.934  27.939  19.001  1.00  0.00     0.018 A 
ATOM      5  Br  UNL     1      24.820  26.790  20.043  1.00  0.00    -0.051 Br
ATOM      6  C   UNL     1      25.556  28.260  17.707  1.00  0.00     0.018 A 
ATOM      7  C   UNL     1      26.376  29.092  16.974  1.00  0.00     0.029 A 
ENDROOT
BRANCH   1   8
ATOM      8  N   UNL     1      28.375  30.446  16.746  1.00  0.00    -0.220 N 
ATOM      9  C   UNL     1      31.262  32.494  15.807  1.00  0.00     0.070 C 
ATOM     10  C   UNL     1      29.998  31.734  15.960  1.00  0.00     0.080 A 
ATOM     11  C   UNL     1      29.587  30.959  17.009  1.00  0.00     0.140 A 
ATOM     12  N   UNL     1      28.996  31.674  15.056  1.00  0.00    -0.135 NA
ATOM     13  N   UNL     1      28.038  30.900  15.546  1.00  0.00    -0.062 NA
ENDBRANCH   1   8
TORSDOF 1
BEGIN_RES LYS A 135
REMARK  4 active torsions:
REMARK  status: ('A' for Active; 'I' for Inactive)
REMARK    1  A    between atoms: CA   and  CB  
REMARK    2  A    between atoms: CB   and  CG  
REMARK    3  A    between atoms: CG   and  CD  
REMARK    4  A    between atoms: CD   and  CE  
ROOT
ATOM      1  CA  LYS A 135      33.193  34.663   9.290  1.00 25.02     0.186 C 
ENDROOT
BRANCH   1   2
ATOM      2  CB  LYS A 135      32.060  35.360  10.034  1.00 26.63     0.034 C 
BRANCH   2   3
ATOM      3  CG  LYS A 135      30.694  34.822   9.693  1.00 29.45     0.005 C 
BRANCH   3   4
ATOM      4  CD  LYS A 135      30.575  34.571   8.198  1.00 32.00     0.041 C 
BRANCH   4   5
ATOM      5  CE  LYS A 135      29.180  34.914   7.710  1.00 34.25     0.338 C 
ATOM      6  NZ  LYS A 135      28.144  34.430   8.664  1.00 35.99     0.618 N 
ENDBRANCH   4   5
ENDBRANCH   3   4
ENDBRANCH   2   3
ENDBRANCH   1   2
END_RES LYS A 135
BEGIN_RES TYR A 136
REMARK  2 active torsions:
REMARK  status: ('A' for Active; 'I' for Inactive)
REMARK    5  A    between atoms: CA   and  CB  
REMARK    6  A    between atoms: CB   and  CG  
ROOT
ATOM      7  CA  TYR A 136      36.583  36.399   8.994  1.00 26.14     0.191 C 
ENDROOT
BRANCH   7   8
ATOM      8  CB  TYR A 136      37.367  36.835  10.240  1.00 28.16     0.060 C 
BRANCH   8   9
ATOM      9  CG  TYR A 136      37.217  38.307  10.534  1.00 31.88    -0.020 A 
ATOM     10  CD2 TYR A 136      37.818  38.886  11.655  1.00 32.67    -0.002 A 
ATOM     11  CE2 TYR A 136      37.670  40.254  11.920  1.00 33.89     0.027 A 
ATOM     12  CZ  TYR A 136      36.914  41.051  11.057  1.00 34.34     0.131 A 
ATOM     13  OH  TYR A 136      36.760  42.409  11.296  1.00 35.14    -0.190 OA
ATOM     14  CE1 TYR A 136      36.309  40.492   9.940  1.00 35.01     0.027 A 
ATOM     15  CD1 TYR A 136      36.458  39.127   9.690  1.00 33.57    -0.002 A 
ENDBRANCH   8   9
ENDBRANCH   7   8
END_RES TYR A 136
BEGIN_RES ASN A 133
REMARK  2 active torsions:
REMARK  status: ('A' for Active; 'I' for Inactive)
REMARK    7  A    between atoms: CA   and  CB  
REMARK    8  A    between atoms: CB   and  CG  
ROOT
ATOM     16  CA  ASN A 133      31.225  30.257  11.749  1.00 18.15     0.196 C 
ENDROOT
BRANCH  16  17
ATOM     17  CB  ASN A 133      30.092  31.240  11.460  1.00 18.27     0.126 C 
BRANCH  17  18
ATOM     18  CG  ASN A 133      28.765  30.573  11.267  1.00 18.94     0.276 C 
ATOM     19  OD1 ASN A 133      28.653  29.567  10.565  1.00 18.09    -0.269 OA
ATOM     20  ND2 ASN A 133      27.733  31.136  11.895  1.00 18.93    -0.107 N 
ENDBRANCH  17  18
ENDBRANCH  16  17
END_RES ASN A 133
