REMARK VINA RESULT:    -3.407      8.385     14.268
REMARK INTER + INTRA:          -7.314
REMARK INTER:                  -4.040
REMARK INTRA:                  -3.274
REMARK UNBOUND:                -3.309
REMARK SMILES Cc1cn(CCC2OCCO2)nn1
REMARK SMILES IDX 5 1 4 2 1 3 2 4 3 5 13 6 12 7 6 8 7 9 8 10 11 11 9 12 10 13
REMARK H PARENT
REMARK Flexibility Score: inf
ROOT
ATOM      1  C   UNL     1      37.666  33.630  13.503  1.00  0.00     0.151 C 
ENDROOT
BRANCH   1   2
ATOM      2  N   UNL     1      38.799  34.368  13.008  1.00  0.00    -0.252 N 
ATOM      3  C   UNL     1      40.456  36.677  10.757  1.00  0.00     0.070 C 
ATOM      4  C   UNL     1      40.017  35.706  11.799  1.00  0.00     0.080 A 
ATOM      5  C   UNL     1      38.748  35.197  11.959  1.00  0.00     0.134 A 
ATOM      6  N   UNL     1      40.791  35.167  12.757  1.00  0.00    -0.136 NA
ATOM      7  N   UNL     1      40.033  34.359  13.479  1.00  0.00    -0.067 NA
ENDBRANCH   1   2
BRANCH   1   8
ATOM      8  C   UNL     1      36.438  34.106  12.802  1.00  0.00     0.086 C 
BRANCH   8   9
ATOM      9  C   UNL     1      35.528  34.917  13.701  1.00  0.00     0.251 C 
ATOM     10  O   UNL     1      34.217  34.517  13.628  1.00  0.00    -0.350 OA
ATOM     11  O   UNL     1      35.590  36.264  13.442  1.00  0.00    -0.350 OA
ATOM     12  C   UNL     1      33.443  35.606  13.304  1.00  0.00     0.192 C 
ATOM     13  C   UNL     1      34.453  36.537  12.665  1.00  0.00     0.192 C 
ENDBRANCH   8   9
ENDBRANCH   1   8
TORSDOF 3
BEGIN_RES LYS A 135
REMARK  4 active torsions:
REMARK  status: ('A' for Active; 'I' for Inactive)
REMARK    1  A    between atoms: CA   and  CB  
REMARK    2  A    between atoms: CB   and  CG  
REMARK    3  A    between atoms: CG   and  CD  
REMARK    4  A    between atoms: CD   and  CE  
ROOT
ATOM      1  CA  LYS A 135      33.193  34.663   9.290  1.00 25.02     0.186 C 
ENDROOT
BRANCH   1   2
ATOM      2  CB  LYS A 135      32.060  35.360  10.034  1.00 26.63     0.034 C 
BRANCH   2   3
ATOM      3  CG  LYS A 135      30.724  34.684   9.867  1.00 29.45     0.005 C 
BRANCH   3   4
ATOM      4  CD  LYS A 135      30.297  34.692   8.407  1.00 32.00     0.041 C 
BRANCH   4   5
ATOM      5  CE  LYS A 135      28.793  34.533   8.291  1.00 34.25     0.338 C 
ATOM      6  NZ  LYS A 135      28.236  33.821   9.475  1.00 35.99     0.618 N 
ENDBRANCH   4   5
ENDBRANCH   3   4
ENDBRANCH   2   3
ENDBRANCH   1   2
END_RES LYS A 135
BEGIN_RES TYR A 136
REMARK  2 active torsions:
REMARK  status: ('A' for Active; 'I' for Inactive)
REMARK    5  A    between atoms: CA   and  CB  
REMARK    6  A    between atoms: CB   and  CG  
ROOT
ATOM      7  CA  TYR A 136      36.583  36.399   8.994  1.00 26.14     0.191 C 
ENDROOT
BRANCH   7   8
ATOM      8  CB  TYR A 136      37.367  36.835  10.240  1.00 28.16     0.060 C 
BRANCH   8   9
ATOM      9  CG  TYR A 136      37.095  38.269  10.624  1.00 31.88    -0.020 A 
ATOM     10  CD2 TYR A 136      36.404  39.128   9.768  1.00 32.67    -0.002 A 
ATOM     11  CE2 TYR A 136      36.158  40.459  10.133  1.00 33.89     0.027 A 
ATOM     12  CZ  TYR A 136      36.608  40.933  11.368  1.00 34.34     0.131 A 
ATOM     13  OH  TYR A 136      36.370  42.245  11.754  1.00 35.14    -0.190 OA
ATOM     14  CE1 TYR A 136      37.297  40.094  12.231  1.00 35.01     0.027 A 
ATOM     15  CD1 TYR A 136      37.542  38.772  11.853  1.00 33.57    -0.002 A 
ENDBRANCH   8   9
ENDBRANCH   7   8
END_RES TYR A 136
BEGIN_RES ASN A 133
REMARK  2 active torsions:
REMARK  status: ('A' for Active; 'I' for Inactive)
REMARK    7  A    between atoms: CA   and  CB  
REMARK    8  A    between atoms: CB   and  CG  
ROOT
ATOM     16  CA  ASN A 133      31.225  30.257  11.749  1.00 18.15     0.196 C 
ENDROOT
BRANCH  16  17
ATOM     17  CB  ASN A 133      30.092  31.240  11.460  1.00 18.27     0.126 C 
BRANCH  17  18
ATOM     18  CG  ASN A 133      28.752  30.582  11.346  1.00 18.94     0.276 C 
ATOM     19  OD1 ASN A 133      28.583  29.599  10.622  1.00 18.09    -0.269 OA
ATOM     20  ND2 ASN A 133      27.773  31.124  12.069  1.00 18.93    -0.107 N 
ENDBRANCH  17  18
ENDBRANCH  16  17
END_RES ASN A 133
