REMARK VINA RESULT:    -3.317      9.587     14.927
REMARK INTER + INTRA:          -6.592
REMARK INTER:                  -4.256
REMARK INTRA:                  -2.336
REMARK UNBOUND:                -3.081
REMARK SMILES Cc1cn(-c2cccc(Cl)c2)nn1
REMARK SMILES IDX 5 1 6 2 7 3 8 4 9 5 10 6 11 7 4 8 1 9 2 10 3 11 13 12 12 13
REMARK H PARENT
REMARK Flexibility Score: inf
ROOT
ATOM      1  C   UNL     1      37.848  34.811  13.125  1.00  0.00     0.068 A 
ATOM      2  C   UNL     1      36.832  34.212  12.427  1.00  0.00     0.028 A 
ATOM      3  C   UNL     1      35.531  34.284  12.862  1.00  0.00     0.004 A 
ATOM      4  C   UNL     1      35.260  34.976  14.028  1.00  0.00     0.020 A 
ATOM      5  C   UNL     1      36.250  35.594  14.763  1.00  0.00     0.043 A 
ATOM      6  Cl  UNL     1      35.884  36.474  16.252  1.00  0.00    -0.084 Cl
ATOM      7  C   UNL     1      37.540  35.493  14.285  1.00  0.00     0.049 A 
ENDROOT
BRANCH   1   8
ATOM      8  N   UNL     1      39.219  34.747  12.683  1.00  0.00    -0.220 N 
ATOM      9  C   UNL     1      42.362  35.805  11.251  1.00  0.00     0.070 C 
ATOM     10  C   UNL     1      41.192  35.167  11.870  1.00  0.00     0.080 A 
ATOM     11  C   UNL     1      39.950  35.694  12.105  1.00  0.00     0.140 A 
ATOM     12  N   UNL     1      41.142  33.903  12.327  1.00  0.00    -0.135 NA
ATOM     13  N   UNL     1      39.949  33.652  12.818  1.00  0.00    -0.062 NA
ENDBRANCH   1   8
TORSDOF 1
BEGIN_RES LYS A 135
REMARK  4 active torsions:
REMARK  status: ('A' for Active; 'I' for Inactive)
REMARK    1  A    between atoms: CA   and  CB  
REMARK    2  A    between atoms: CB   and  CG  
REMARK    3  A    between atoms: CG   and  CD  
REMARK    4  A    between atoms: CD   and  CE  
ROOT
ATOM      1  CA  LYS A 135      33.193  34.663   9.290  1.00 25.02     0.186 C 
ENDROOT
BRANCH   1   2
ATOM      2  CB  LYS A 135      32.060  35.360  10.034  1.00 26.63     0.034 C 
BRANCH   2   3
ATOM      3  CG  LYS A 135      30.704  35.131   9.418  1.00 29.45     0.005 C 
BRANCH   3   4
ATOM      4  CD  LYS A 135      30.142  36.429   8.860  1.00 32.00     0.041 C 
BRANCH   4   5
ATOM      5  CE  LYS A 135      30.871  37.622   9.448  1.00 34.25     0.338 C 
ATOM      6  NZ  LYS A 135      31.185  38.629   8.397  1.00 35.99     0.618 N 
ENDBRANCH   4   5
ENDBRANCH   3   4
ENDBRANCH   2   3
ENDBRANCH   1   2
END_RES LYS A 135
BEGIN_RES TYR A 136
REMARK  2 active torsions:
REMARK  status: ('A' for Active; 'I' for Inactive)
REMARK    5  A    between atoms: CA   and  CB  
REMARK    6  A    between atoms: CB   and  CG  
ROOT
ATOM      7  CA  TYR A 136      36.583  36.399   8.994  1.00 26.14     0.191 C 
ENDROOT
BRANCH   7   8
ATOM      8  CB  TYR A 136      37.367  36.835  10.240  1.00 28.16     0.060 C 
BRANCH   8   9
ATOM      9  CG  TYR A 136      36.815  38.094  10.862  1.00 31.88    -0.020 A 
ATOM     10  CD2 TYR A 136      37.075  39.349  10.306  1.00 32.67    -0.002 A 
ATOM     11  CE2 TYR A 136      36.559  40.513  10.892  1.00 33.89     0.027 A 
ATOM     12  CZ  TYR A 136      35.776  40.420  12.045  1.00 34.34     0.131 A 
ATOM     13  OH  TYR A 136      35.248  41.559  12.639  1.00 35.14    -0.190 OA
ATOM     14  CE1 TYR A 136      35.508  39.182  12.611  1.00 35.01     0.027 A 
ATOM     15  CD1 TYR A 136      36.033  38.031  12.022  1.00 33.57    -0.002 A 
ENDBRANCH   8   9
ENDBRANCH   7   8
END_RES TYR A 136
BEGIN_RES ASN A 133
REMARK  2 active torsions:
REMARK  status: ('A' for Active; 'I' for Inactive)
REMARK    7  A    between atoms: CA   and  CB  
REMARK    8  A    between atoms: CB   and  CG  
ROOT
ATOM     16  CA  ASN A 133      31.225  30.257  11.749  1.00 18.15     0.196 C 
ENDROOT
BRANCH  16  17
ATOM     17  CB  ASN A 133      30.092  31.240  11.460  1.00 18.27     0.126 C 
BRANCH  17  18
ATOM     18  CG  ASN A 133      28.751  30.583  11.355  1.00 18.94     0.276 C 
ATOM     19  OD1 ASN A 133      28.575  29.605  10.625  1.00 18.09    -0.269 OA
ATOM     20  ND2 ASN A 133      27.779  31.120  12.090  1.00 18.93    -0.107 N 
ENDBRANCH  17  18
ENDBRANCH  16  17
END_RES ASN A 133
