REMARK VINA RESULT:    -3.785      9.371     14.508
REMARK INTER + INTRA:          -7.934
REMARK INTER:                  -4.519
REMARK INTRA:                  -3.415
REMARK UNBOUND:                -3.264
REMARK SMILES Cc1cn(CCNS(C)(=O)=O)nn1
REMARK SMILES IDX 6 1 5 2 4 3 1 4 2 5 3 6 13 7 12 8 7 9 8 11 10 12 11 13 9 14
REMARK H PARENT 7 10
REMARK Flexibility Score: inf
ROOT
ATOM      1  C   UNL     1      38.028  32.924  13.026  1.00  0.00     0.122 C 
ENDROOT
BRANCH   1   2
ATOM      2  C   UNL     1      36.977  33.484  12.062  1.00  0.00     0.162 C 
BRANCH   2   3
ATOM      3  N   UNL     1      36.200  34.468  12.829  1.00  0.00    -0.251 N 
ATOM      4  C   UNL     1      35.656  37.672  14.502  1.00  0.00     0.070 C 
ATOM      5  C   UNL     1      35.604  36.306  13.906  1.00  0.00     0.080 A 
ATOM      6  C   UNL     1      36.615  35.687  13.207  1.00  0.00     0.134 A 
ATOM      7  N   UNL     1      34.593  35.422  13.929  1.00  0.00    -0.136 NA
ATOM      8  N   UNL     1      34.968  34.336  13.281  1.00  0.00    -0.067 NA
ENDBRANCH   2   3
ENDBRANCH   1   2
BRANCH   1   9
ATOM      9  N   UNL     1      39.304  32.945  12.372  1.00  0.00    -0.214 NA
ATOM     10  H   UNL     1      39.223  32.954  11.349  1.00  0.00     0.141 HD
BRANCH   9  11
ATOM     11  S   UNL     1      40.277  34.223  12.974  1.00  0.00     0.208 S 
ATOM     12  O   UNL     1      41.709  33.790  13.079  1.00  0.00    -0.213 OA
ATOM     13  O   UNL     1      39.778  34.590  14.360  1.00  0.00    -0.213 OA
ATOM     14  C   UNL     1      40.094  35.634  11.943  1.00  0.00     0.176 C 
ENDBRANCH   9  11
ENDBRANCH   1   9
TORSDOF 4
BEGIN_RES LYS A 135
REMARK  4 active torsions:
REMARK  status: ('A' for Active; 'I' for Inactive)
REMARK    1  A    between atoms: CA   and  CB  
REMARK    2  A    between atoms: CB   and  CG  
REMARK    3  A    between atoms: CG   and  CD  
REMARK    4  A    between atoms: CD   and  CE  
ROOT
ATOM      1  CA  LYS A 135      33.193  34.663   9.290  1.00 25.02     0.186 C 
ENDROOT
BRANCH   1   2
ATOM      2  CB  LYS A 135      32.060  35.360  10.034  1.00 26.63     0.034 C 
BRANCH   2   3
ATOM      3  CG  LYS A 135      30.728  34.672   9.884  1.00 29.45     0.005 C 
BRANCH   3   4
ATOM      4  CD  LYS A 135      30.335  34.576   8.418  1.00 32.00     0.041 C 
BRANCH   4   5
ATOM      5  CE  LYS A 135      28.827  34.508   8.274  1.00 34.25     0.338 C 
ATOM      6  NZ  LYS A 135      28.207  33.819   9.440  1.00 35.99     0.618 N 
ENDBRANCH   4   5
ENDBRANCH   3   4
ENDBRANCH   2   3
ENDBRANCH   1   2
END_RES LYS A 135
BEGIN_RES TYR A 136
REMARK  2 active torsions:
REMARK  status: ('A' for Active; 'I' for Inactive)
REMARK    5  A    between atoms: CA   and  CB  
REMARK    6  A    between atoms: CB   and  CG  
ROOT
ATOM      7  CA  TYR A 136      36.583  36.399   8.994  1.00 26.14     0.191 C 
ENDROOT
BRANCH   7   8
ATOM      8  CB  TYR A 136      37.367  36.835  10.240  1.00 28.16     0.060 C 
BRANCH   8   9
ATOM      9  CG  TYR A 136      37.222  38.309  10.530  1.00 31.88    -0.020 A 
ATOM     10  CD2 TYR A 136      36.506  39.147   9.674  1.00 32.67    -0.002 A 
ATOM     11  CE2 TYR A 136      36.379  40.515   9.952  1.00 33.89     0.027 A 
ATOM     12  CZ  TYR A 136      36.975  41.049  11.097  1.00 34.34     0.131 A 
ATOM     13  OH  TYR A 136      36.857  42.399  11.396  1.00 35.14    -0.190 OA
ATOM     14  CE1 TYR A 136      37.692  40.230  11.958  1.00 35.01     0.027 A 
ATOM     15  CD1 TYR A 136      37.817  38.871  11.667  1.00 33.57    -0.002 A 
ENDBRANCH   8   9
ENDBRANCH   7   8
END_RES TYR A 136
BEGIN_RES ASN A 133
REMARK  2 active torsions:
REMARK  status: ('A' for Active; 'I' for Inactive)
REMARK    7  A    between atoms: CA   and  CB  
REMARK    8  A    between atoms: CB   and  CG  
ROOT
ATOM     16  CA  ASN A 133      31.225  30.257  11.749  1.00 18.15     0.196 C 
ENDROOT
BRANCH  16  17
ATOM     17  CB  ASN A 133      30.092  31.240  11.460  1.00 18.27     0.126 C 
BRANCH  17  18
ATOM     18  CG  ASN A 133      28.751  30.582  11.352  1.00 18.94     0.276 C 
ATOM     19  OD1 ASN A 133      28.581  29.592  10.638  1.00 18.09    -0.269 OA
ATOM     20  ND2 ASN A 133      27.772  31.134  12.068  1.00 18.93    -0.107 N 
ENDBRANCH  17  18
ENDBRANCH  16  17
END_RES ASN A 133
