REMARK VINA RESULT:    -3.607      8.554     14.066
REMARK INTER + INTRA:          -6.899
REMARK INTER:                  -3.958
REMARK INTRA:                  -2.940
REMARK UNBOUND:                -3.081
REMARK SMILES Cc1cn(-c2cccc(Cl)c2)nn1
REMARK SMILES IDX 5 1 6 2 7 3 8 4 9 5 10 6 11 7 4 8 1 9 2 10 3 11 13 12 12 13
REMARK H PARENT
REMARK Flexibility Score: inf
ROOT
ATOM      1  C   UNL     1      36.701  35.620  13.401  1.00  0.00     0.068 A 
ATOM      2  C   UNL     1      35.987  34.571  12.883  1.00  0.00     0.028 A 
ATOM      3  C   UNL     1      36.612  33.419  12.471  1.00  0.00     0.004 A 
ATOM      4  C   UNL     1      37.988  33.336  12.586  1.00  0.00     0.020 A 
ATOM      5  C   UNL     1      38.747  34.366  13.100  1.00  0.00     0.043 A 
ATOM      6  Cl  UNL     1      40.505  34.241  13.239  1.00  0.00    -0.084 Cl
ATOM      7  C   UNL     1      38.072  35.500  13.500  1.00  0.00     0.049 A 
ENDROOT
BRANCH   1   8
ATOM      8  N   UNL     1      36.061  36.835  13.839  1.00  0.00    -0.220 N 
ATOM      9  C   UNL     1      33.570  39.438  14.104  1.00  0.00     0.070 C 
ATOM     10  C   UNL     1      34.704  38.506  14.155  1.00  0.00     0.080 A 
ATOM     11  C   UNL     1      34.885  37.334  13.471  1.00  0.00     0.140 A 
ATOM     12  N   UNL     1      35.804  38.656  14.914  1.00  0.00    -0.135 NA
ATOM     13  N   UNL     1      36.623  37.646  14.721  1.00  0.00    -0.062 NA
ENDBRANCH   1   8
TORSDOF 1
BEGIN_RES LYS A 135
REMARK  4 active torsions:
REMARK  status: ('A' for Active; 'I' for Inactive)
REMARK    1  A    between atoms: CA   and  CB  
REMARK    2  A    between atoms: CB   and  CG  
REMARK    3  A    between atoms: CG   and  CD  
REMARK    4  A    between atoms: CD   and  CE  
ROOT
ATOM      1  CA  LYS A 135      33.193  34.663   9.290  1.00 25.02     0.186 C 
ENDROOT
BRANCH   1   2
ATOM      2  CB  LYS A 135      32.060  35.360  10.034  1.00 26.63     0.034 C 
BRANCH   2   3
ATOM      3  CG  LYS A 135      30.715  34.713   9.827  1.00 29.45     0.005 C 
BRANCH   3   4
ATOM      4  CD  LYS A 135      30.369  34.655   8.347  1.00 32.00     0.041 C 
BRANCH   4   5
ATOM      5  CE  LYS A 135      29.311  35.687   8.007  1.00 34.25     0.338 C 
ATOM      6  NZ  LYS A 135      28.851  35.539   6.598  1.00 35.99     0.618 N 
ENDBRANCH   4   5
ENDBRANCH   3   4
ENDBRANCH   2   3
ENDBRANCH   1   2
END_RES LYS A 135
BEGIN_RES TYR A 136
REMARK  2 active torsions:
REMARK  status: ('A' for Active; 'I' for Inactive)
REMARK    5  A    between atoms: CA   and  CB  
REMARK    6  A    between atoms: CB   and  CG  
ROOT
ATOM      7  CA  TYR A 136      36.583  36.399   8.994  1.00 26.14     0.191 C 
ENDROOT
BRANCH   7   8
ATOM      8  CB  TYR A 136      37.367  36.835  10.240  1.00 28.16     0.060 C 
BRANCH   8   9
ATOM      9  CG  TYR A 136      36.987  38.218  10.710  1.00 31.88    -0.020 A 
ATOM     10  CD2 TYR A 136      37.803  38.932  11.591  1.00 32.67    -0.002 A 
ATOM     11  CE2 TYR A 136      37.441  40.215  12.022  1.00 33.89     0.027 A 
ATOM     12  CZ  TYR A 136      36.250  40.789  11.569  1.00 34.34     0.131 A 
ATOM     13  OH  TYR A 136      35.875  42.061  11.978  1.00 35.14    -0.190 OA
ATOM     14  CE1 TYR A 136      35.427  40.093  10.695  1.00 35.01     0.027 A 
ATOM     15  CD1 TYR A 136      35.796  38.814  10.277  1.00 33.57    -0.002 A 
ENDBRANCH   8   9
ENDBRANCH   7   8
END_RES TYR A 136
BEGIN_RES ASN A 133
REMARK  2 active torsions:
REMARK  status: ('A' for Active; 'I' for Inactive)
REMARK    7  A    between atoms: CA   and  CB  
REMARK    8  A    between atoms: CB   and  CG  
ROOT
ATOM     16  CA  ASN A 133      31.225  30.257  11.749  1.00 18.15     0.196 C 
ENDROOT
BRANCH  16  17
ATOM     17  CB  ASN A 133      30.092  31.240  11.460  1.00 18.27     0.126 C 
BRANCH  17  18
ATOM     18  CG  ASN A 133      28.749  30.584  11.368  1.00 18.94     0.276 C 
ATOM     19  OD1 ASN A 133      28.562  29.612  10.633  1.00 18.09    -0.269 OA
ATOM     20  ND2 ASN A 133      27.787  31.117  12.120  1.00 18.93    -0.107 N 
ENDBRANCH  17  18
ENDBRANCH  16  17
END_RES ASN A 133
