REMARK VINA RESULT:    -9.899      6.525     10.050
REMARK INTER + INTRA:          -6.523
REMARK INTER:                  -4.316
REMARK INTRA:                  -2.207
REMARK UNBOUND:                 6.270
REMARK SMILES Cc1cn(C2CCc3ccccc3NC2=O)nn1
REMARK SMILES IDX 14 1 15 2 16 3 5 5 4 6 1 7 2 8 3 9 18 10 17 11 6 12 13 14
REMARK SMILES IDX 8 15 12 16 9 17 11 18 10 19 7 20
REMARK H PARENT 14 4
REMARK Flexibility Score: 90.00
ROOT
ATOM      1  N   UNL     1      29.101  27.890  19.950  1.00  0.00    -0.324 N 
ATOM      2  C   UNL     1      28.219  28.789  19.304  1.00  0.00     0.249 C 
ATOM      3  O   UNL     1      27.139  28.260  18.937  1.00  0.00    -0.272 OA
ATOM      4  H   UNL     1      28.911  26.862  19.881  1.00  0.00     0.170 HD
ENDROOT
BRANCH   2   5
ATOM      5  C   UNL     1      28.367  30.220  19.003  1.00  0.00     0.198 C 
BRANCH   5   6
ATOM      6  N   UNL     1      27.934  30.427  17.632  1.00  0.00    -0.240 N 
ATOM      7  C   UNL     1      25.577  31.439  14.999  1.00  0.00     0.070 C 
ATOM      8  C   UNL     1      26.679  30.973  15.869  1.00  0.00     0.080 A 
ATOM      9  C   UNL     1      26.722  30.925  17.244  1.00  0.00     0.135 A 
ATOM     10  N   UNL     1      27.863  30.505  15.448  1.00  0.00    -0.136 NA
ATOM     11  N   UNL     1      28.612  30.179  16.513  1.00  0.00    -0.066 NA
ENDBRANCH   5   6
BRANCH   5  12
ATOM     12  C   UNL     1      29.788  30.701  19.110  1.00  0.00     0.042 CG0
ATOM     13  G   UNL     1      30.247  30.762  20.564  1.00  0.00     0.000 G0
ENDBRANCH   5  12
ENDBRANCH   2   5
BRANCH   1  14
ATOM     14  C   UNL     1      30.262  28.191  20.716  1.00  0.00     0.044 A 
ATOM     15  C   UNL     1      30.793  29.452  21.000  1.00  0.00    -0.024 A 
ATOM     16  C   UNL     1      30.907  27.083  21.217  1.00  0.00     0.026 A 
ATOM     17  C   UNL     1      31.935  29.537  21.766  1.00  0.00     0.006 A 
ATOM     18  C   UNL     1      32.052  27.135  21.986  1.00  0.00     0.002 A 
ATOM     19  C   UNL     1      32.561  28.412  22.255  1.00  0.00     0.000 A 
BRANCH  15  20
ATOM     20  C   UNL     1      30.251  30.767  20.557  1.00  0.00     0.040 CG0
ATOM     21  G   UNL     1      29.806  30.702  19.098  1.00  0.00     0.000 G0
ENDBRANCH  15  20
ENDBRANCH   1  14
TORSDOF 1
BEGIN_RES LYS A 135
REMARK  4 active torsions:
REMARK  status: ('A' for Active; 'I' for Inactive)
REMARK    1  A    between atoms: CA   and  CB  
REMARK    2  A    between atoms: CB   and  CG  
REMARK    3  A    between atoms: CG   and  CD  
REMARK    4  A    between atoms: CD   and  CE  
ROOT
ATOM      1  CA  LYS A 135      33.193  34.663   9.290  1.00 25.02     0.186 C 
ENDROOT
BRANCH   1   2
ATOM      2  CB  LYS A 135      32.060  35.360  10.034  1.00 26.63     0.034 C 
BRANCH   2   3
ATOM      3  CG  LYS A 135      30.834  35.588   9.188  1.00 29.45     0.005 C 
BRANCH   3   4
ATOM      4  CD  LYS A 135      29.987  34.327   9.120  1.00 32.00     0.041 C 
BRANCH   4   5
ATOM      5  CE  LYS A 135      28.802  34.430  10.061  1.00 34.25     0.338 C 
ATOM      6  NZ  LYS A 135      27.650  33.627   9.565  1.00 35.99     0.618 N 
ENDBRANCH   4   5
ENDBRANCH   3   4
ENDBRANCH   2   3
ENDBRANCH   1   2
END_RES LYS A 135
BEGIN_RES TYR A 136
REMARK  2 active torsions:
REMARK  status: ('A' for Active; 'I' for Inactive)
REMARK    5  A    between atoms: CA   and  CB  
REMARK    6  A    between atoms: CB   and  CG  
ROOT
ATOM      7  CA  TYR A 136      36.583  36.399   8.994  1.00 26.14     0.191 C 
ENDROOT
BRANCH   7   8
ATOM      8  CB  TYR A 136      37.367  36.835  10.240  1.00 28.16     0.060 C 
BRANCH   8   9
ATOM      9  CG  TYR A 136      37.234  38.311  10.522  1.00 31.88    -0.020 A 
ATOM     10  CD2 TYR A 136      36.495  39.145   9.679  1.00 32.67    -0.002 A 
ATOM     11  CE2 TYR A 136      36.380  40.515   9.949  1.00 33.89     0.027 A 
ATOM     12  CZ  TYR A 136      37.009  41.057  11.072  1.00 34.34     0.131 A 
ATOM     13  OH  TYR A 136      36.902  42.410  11.363  1.00 35.14    -0.190 OA
ATOM     14  CE1 TYR A 136      37.748  40.244  11.920  1.00 35.01     0.027 A 
ATOM     15  CD1 TYR A 136      37.861  38.881  11.637  1.00 33.57    -0.002 A 
ENDBRANCH   8   9
ENDBRANCH   7   8
END_RES TYR A 136
BEGIN_RES ASN A 133
REMARK  2 active torsions:
REMARK  status: ('A' for Active; 'I' for Inactive)
REMARK    7  A    between atoms: CA   and  CB  
REMARK    8  A    between atoms: CB   and  CG  
ROOT
ATOM     16  CA  ASN A 133      31.225  30.257  11.749  1.00 18.15     0.196 C 
ENDROOT
BRANCH  16  17
ATOM     17  CB  ASN A 133      30.092  31.240  11.460  1.00 18.27     0.126 C 
BRANCH  17  18
ATOM     18  CG  ASN A 133      28.758  30.577  11.308  1.00 18.94     0.276 C 
ATOM     19  OD1 ASN A 133      28.604  29.621  10.546  1.00 18.09    -0.269 OA
ATOM     20  ND2 ASN A 133      27.767  31.086  12.039  1.00 18.93    -0.107 N 
ENDBRANCH  17  18
ENDBRANCH  16  17
END_RES ASN A 133
