REMARK VINA RESULT:    -3.610      5.266     11.875
REMARK INTER + INTRA:          -7.343
REMARK INTER:                  -5.314
REMARK INTRA:                  -2.029
REMARK UNBOUND:                -3.310
REMARK SMILES Cc1cn(-c2cc(Cl)ccc2C(=O)N(C)C)nn1
REMARK SMILES IDX 5 1 6 2 7 3 8 4 9 5 10 6 11 7 4 8 1 9 2 10 3 11 18 12 17 13
REMARK SMILES IDX 12 14 13 15 14 16 15 17 16 18
REMARK H PARENT
REMARK Flexibility Score: inf
ROOT
ATOM      1  C   UNL     1      25.523  36.873   8.089  1.00  0.00     0.081 A 
ATOM      2  C   UNL     1      26.635  36.862   7.236  1.00  0.00     0.049 A 
ATOM      3  C   UNL     1      27.468  35.765   7.184  1.00  0.00     0.043 A 
ATOM      4  Cl  UNL     1      28.862  35.769   6.108  1.00  0.00    -0.084 Cl
ATOM      5  C   UNL     1      27.227  34.657   7.968  1.00  0.00     0.021 A 
ATOM      6  C   UNL     1      26.134  34.672   8.802  1.00  0.00     0.017 A 
ATOM      7  C   UNL     1      25.308  35.759   8.854  1.00  0.00     0.065 A 
ENDROOT
BRANCH   1   8
ATOM      8  N   UNL     1      24.671  38.010   8.132  1.00  0.00    -0.220 N 
ATOM      9  C   UNL     1      23.592  41.350   9.193  1.00  0.00     0.070 C 
ATOM     10  C   UNL     1      23.789  39.992   8.603  1.00  0.00     0.080 A 
ATOM     11  C   UNL     1      24.859  39.123   8.844  1.00  0.00     0.140 A 
ATOM     12  N   UNL     1      22.999  39.338   7.740  1.00  0.00    -0.135 NA
ATOM     13  N   UNL     1      23.551  38.170   7.485  1.00  0.00    -0.062 NA
ENDBRANCH   1   8
BRANCH   7  14
ATOM     14  C   UNL     1      24.151  35.743   9.754  1.00  0.00     0.255 C 
ATOM     15  O   UNL     1      23.027  35.347   9.365  1.00  0.00    -0.269 OA
ATOM     16  N   UNL     1      24.341  36.195  11.090  1.00  0.00    -0.345 N 
ATOM     17  C   UNL     1      23.194  36.188  12.009  1.00  0.00     0.146 C 
ATOM     18  C   UNL     1      25.608  36.655  11.570  1.00  0.00     0.146 C 
ENDBRANCH   7  14
TORSDOF 2
BEGIN_RES LYS A 135
REMARK  4 active torsions:
REMARK  status: ('A' for Active; 'I' for Inactive)
REMARK    1  A    between atoms: CA   and  CB  
REMARK    2  A    between atoms: CB   and  CG  
REMARK    3  A    between atoms: CG   and  CD  
REMARK    4  A    between atoms: CD   and  CE  
ROOT
ATOM      1  CA  LYS A 135      33.193  34.663   9.290  1.00 25.02     0.186 C 
ENDROOT
BRANCH   1   2
ATOM      2  CB  LYS A 135      32.060  35.360  10.034  1.00 26.63     0.034 C 
BRANCH   2   3
ATOM      3  CG  LYS A 135      30.692  35.024   9.500  1.00 29.45     0.005 C 
BRANCH   3   4
ATOM      4  CD  LYS A 135      29.611  35.700  10.329  1.00 32.00     0.041 C 
BRANCH   4   5
ATOM      5  CE  LYS A 135      28.951  34.702  11.260  1.00 34.25     0.338 C 
ATOM      6  NZ  LYS A 135      29.562  34.751  12.618  1.00 35.99     0.618 N 
ENDBRANCH   4   5
ENDBRANCH   3   4
ENDBRANCH   2   3
ENDBRANCH   1   2
END_RES LYS A 135
BEGIN_RES TYR A 136
REMARK  2 active torsions:
REMARK  status: ('A' for Active; 'I' for Inactive)
REMARK    5  A    between atoms: CA   and  CB  
REMARK    6  A    between atoms: CB   and  CG  
ROOT
ATOM      7  CA  TYR A 136      36.583  36.399   8.994  1.00 26.14     0.191 C 
ENDROOT
BRANCH   7   8
ATOM      8  CB  TYR A 136      37.367  36.835  10.240  1.00 28.16     0.060 C 
BRANCH   8   9
ATOM      9  CG  TYR A 136      36.653  36.492  11.524  1.00 31.88    -0.020 A 
ATOM     10  CD2 TYR A 136      36.963  35.331  12.236  1.00 32.67    -0.002 A 
ATOM     11  CE2 TYR A 136      36.292  35.021  13.427  1.00 33.89     0.027 A 
ATOM     12  CZ  TYR A 136      35.302  35.880  13.910  1.00 34.34     0.131 A 
ATOM     13  OH  TYR A 136      34.630  35.597  15.091  1.00 35.14    -0.190 OA
ATOM     14  CE1 TYR A 136      34.981  37.037  13.215  1.00 35.01     0.027 A 
ATOM     15  CD1 TYR A 136      35.651  37.332  12.027  1.00 33.57    -0.002 A 
ENDBRANCH   8   9
ENDBRANCH   7   8
END_RES TYR A 136
BEGIN_RES ASN A 133
REMARK  2 active torsions:
REMARK  status: ('A' for Active; 'I' for Inactive)
REMARK    7  A    between atoms: CA   and  CB  
REMARK    8  A    between atoms: CB   and  CG  
ROOT
ATOM     16  CA  ASN A 133      31.225  30.257  11.749  1.00 18.15     0.196 C 
ENDROOT
BRANCH  16  17
ATOM     17  CB  ASN A 133      30.092  31.240  11.460  1.00 18.27     0.126 C 
BRANCH  17  18
ATOM     18  CG  ASN A 133      28.750  30.583  11.358  1.00 18.94     0.276 C 
ATOM     19  OD1 ASN A 133      28.573  29.602  10.634  1.00 18.09    -0.269 OA
ATOM     20  ND2 ASN A 133      27.779  31.126  12.091  1.00 18.93    -0.107 N 
ENDBRANCH  17  18
ENDBRANCH  16  17
END_RES ASN A 133
