REMARK VINA RESULT:    -3.727      6.274      8.875
REMARK INTER + INTRA:          -7.425
REMARK INTER:                  -4.381
REMARK INTRA:                  -3.044
REMARK UNBOUND:                -3.044
REMARK SMILES Cc1cn(CS(=O)(=O)c2ccccc2)nn1
REMARK SMILES IDX 5 1 4 2 1 3 2 4 3 5 16 6 15 7 6 8 7 9 8 10 9 11 10 12 14 13
REMARK SMILES IDX 11 14 13 15 12 16
REMARK H PARENT
REMARK Flexibility Score: inf
ROOT
ATOM      1  C   UNL     1      39.365  39.082   2.244  1.00  0.00     0.287 C 
ENDROOT
BRANCH   1   2
ATOM      2  N   UNL     1      38.007  39.339   1.804  1.00  0.00    -0.237 N 
ATOM      3  C   UNL     1      34.967  41.313   1.235  1.00  0.00     0.070 C 
ATOM      4  C   UNL     1      36.038  40.286   1.336  1.00  0.00     0.080 A 
ATOM      5  C   UNL     1      37.304  40.484   1.879  1.00  0.00     0.135 A 
ATOM      6  N   UNL     1      36.032  38.999   0.949  1.00  0.00    -0.136 NA
ATOM      7  N   UNL     1      37.202  38.445   1.229  1.00  0.00    -0.066 NA
ENDBRANCH   1   2
BRANCH   1   8
ATOM      8  S   UNL     1      39.408  38.080   3.702  1.00  0.00     0.198 S 
ATOM      9  O   UNL     1      40.703  38.214   4.442  1.00  0.00    -0.222 OA
ATOM     10  O   UNL     1      39.262  36.631   3.332  1.00  0.00    -0.222 OA
BRANCH   8  11
ATOM     11  C   UNL     1      38.117  38.474   4.796  1.00  0.00     0.069 A 
ATOM     12  C   UNL     1      36.881  37.848   4.733  1.00  0.00     0.020 A 
ATOM     13  C   UNL     1      38.311  39.428   5.753  1.00  0.00     0.020 A 
ATOM     14  C   UNL     1      35.871  38.171   5.606  1.00  0.00     0.001 A 
ATOM     15  C   UNL     1      37.321  39.792   6.660  1.00  0.00     0.001 A 
ATOM     16  C   UNL     1      36.103  39.154   6.575  1.00  0.00     0.000 A 
ENDBRANCH   8  11
ENDBRANCH   1   8
TORSDOF 3
BEGIN_RES LYS A 135
REMARK  4 active torsions:
REMARK  status: ('A' for Active; 'I' for Inactive)
REMARK    1  A    between atoms: CA   and  CB  
REMARK    2  A    between atoms: CB   and  CG  
REMARK    3  A    between atoms: CG   and  CD  
REMARK    4  A    between atoms: CD   and  CE  
ROOT
ATOM      1  CA  LYS A 135      33.193  34.663   9.290  1.00 25.02     0.186 C 
ENDROOT
BRANCH   1   2
ATOM      2  CB  LYS A 135      32.060  35.360  10.034  1.00 26.63     0.034 C 
BRANCH   2   3
ATOM      3  CG  LYS A 135      30.796  35.489   9.223  1.00 29.45     0.005 C 
BRANCH   3   4
ATOM      4  CD  LYS A 135      29.798  34.409   9.609  1.00 32.00     0.041 C 
BRANCH   4   5
ATOM      5  CE  LYS A 135      28.620  34.406   8.654  1.00 34.25     0.338 C 
ATOM      6  NZ  LYS A 135      27.399  33.861   9.309  1.00 35.99     0.618 N 
ENDBRANCH   4   5
ENDBRANCH   3   4
ENDBRANCH   2   3
ENDBRANCH   1   2
END_RES LYS A 135
BEGIN_RES TYR A 136
REMARK  2 active torsions:
REMARK  status: ('A' for Active; 'I' for Inactive)
REMARK    5  A    between atoms: CA   and  CB  
REMARK    6  A    between atoms: CB   and  CG  
ROOT
ATOM      7  CA  TYR A 136      36.583  36.399   8.994  1.00 26.14     0.191 C 
ENDROOT
BRANCH   7   8
ATOM      8  CB  TYR A 136      37.367  36.835  10.240  1.00 28.16     0.060 C 
BRANCH   8   9
ATOM      9  CG  TYR A 136      37.568  38.329  10.306  1.00 31.88    -0.020 A 
ATOM     10  CD2 TYR A 136      36.485  39.199  10.453  1.00 32.67    -0.002 A 
ATOM     11  CE2 TYR A 136      36.682  40.585  10.511  1.00 33.89     0.027 A 
ATOM     12  CZ  TYR A 136      37.975  41.106  10.421  1.00 34.34     0.131 A 
ATOM     13  OH  TYR A 136      38.195  42.475  10.483  1.00 35.14    -0.190 OA
ATOM     14  CE1 TYR A 136      39.062  40.257  10.273  1.00 35.01     0.027 A 
ATOM     15  CD1 TYR A 136      38.853  38.878  10.210  1.00 33.57    -0.002 A 
ENDBRANCH   8   9
ENDBRANCH   7   8
END_RES TYR A 136
BEGIN_RES ASN A 133
REMARK  2 active torsions:
REMARK  status: ('A' for Active; 'I' for Inactive)
REMARK    7  A    between atoms: CA   and  CB  
REMARK    8  A    between atoms: CB   and  CG  
ROOT
ATOM     16  CA  ASN A 133      31.225  30.257  11.749  1.00 18.15     0.196 C 
ENDROOT
BRANCH  16  17
ATOM     17  CB  ASN A 133      30.092  31.240  11.460  1.00 18.27     0.126 C 
BRANCH  17  18
ATOM     18  CG  ASN A 133      28.766  30.573  11.262  1.00 18.94     0.276 C 
ATOM     19  OD1 ASN A 133      28.658  29.560  10.569  1.00 18.09    -0.269 OA
ATOM     20  ND2 ASN A 133      27.730  31.143  11.876  1.00 18.93    -0.107 N 
ENDBRANCH  17  18
ENDBRANCH  16  17
END_RES ASN A 133
