lig_assembled_34.pdb
 OpenBabel07262312223D

 62 67  0  0  1  0  0  0  0  0999 V2000
   -6.9530   12.1160   19.0710 N   0  0  0  0  0  0  0  0  0  0  0  0
   -5.7470   12.0650   19.7110 C   0  0  0  0  0  0  0  0  0  0  0  0
   -4.7500   11.9690   18.7710 C   0  0  0  0  0  0  0  0  0  0  0  0
   -5.3900   11.9920   17.5510 N   0  0  0  0  0  0  0  0  0  0  0  0
   -6.7320   12.0560   17.7600 N   0  0  0  0  0  0  0  0  0  0  0  0
   -4.8040   12.0020   16.2560 C   0  0  0  0  0  0  0  0  0  0  0  0
   -5.2220   12.9470   15.3140 C   0  0  0  0  0  0  0  0  0  0  0  0
   -4.7770   12.9350   13.9700 C   0  0  0  0  0  0  0  0  0  0  0  0
   -3.8160   11.9770   13.5880 C   0  0  0  0  0  0  0  0  0  0  0  0
   -3.3600   11.0550   14.5610 C   0  0  0  0  0  0  0  0  0  0  0  0
   -3.8570   11.0510   15.8760 C   0  0  0  0  0  0  0  0  0  0  0  0
   -3.2910   11.8050   12.1940 C   0  0  0  0  0  0  0  0  0  0  0  0
   -2.2200   12.5070   11.7250 C   0  0  0  0  0  0  0  0  0  0  0  0
   -1.5320   13.5310   12.5220 C   0  0  0  0  0  0  0  0  0  0  0  0
   -0.6080   14.3370   11.9800 C   0  0  0  0  0  0  0  0  0  0  0  0
   -0.2230   14.1950   10.5560 C   0  0  0  0  0  0  0  0  0  0  0  0
    0.5740   14.9680   10.0310 O   0  0  0  0  0  0  0  0  0  0  0  0
   -0.7760   13.0450    9.8130 C   0  0  0  0  0  0  0  0  0  0  0  0
   -1.6830   12.2400   10.3770 C   0  0  0  0  0  0  0  0  0  0  0  0
   -2.0660   11.0970    9.6920 O   0  0  0  0  0  0  0  0  0  0  0  0
   -3.1640   10.4060   10.1320 C   0  0  0  0  0  0  0  0  0  0  0  0
   -3.5620    9.3180    9.3540 C   0  0  0  0  0  0  0  0  0  0  0  0
   -4.7000    8.6100    9.7090 C   0  0  0  0  0  0  0  0  0  0  0  0
   -5.4830    9.0240   10.7800 C   0  0  0  0  0  0  0  0  0  0  0  0
   -5.0640   10.1080   11.5570 C   0  0  0  0  0  0  0  0  0  0  0  0
   -3.8620   10.7750   11.2790 C   0  0  0  0  0  0  0  0  0  0  0  0
   -5.0180    7.4970    8.9880 O   0  0  0  0  0  0  0  0  0  0  0  0
   -5.9870    7.4400    8.9500 H   0  0  0  0  0  0  0  0  0  0  0  0
   -5.4410   13.9200   13.0290 C   0  0  0  0  0  0  0  0  0  0  0  0
   -6.3990   13.4630   12.3250 O   0  0  0  0  0  0  0  0  0  0  0  0
   -4.9630   15.0890   12.9470 O   0  0  0  0  0  0  0  0  0  0  0  0
   -5.6270   12.1150   21.1810 C   0  0  0  0  0  0  0  0  0  0  0  0
   -5.4600   13.4620   21.6310 O   0  0  0  0  0  0  0  0  0  0  0  0
   -4.9040   13.4590   22.9480 C   0  0  0  0  0  0  0  0  0  0  0  0
   -5.5980   13.8470   23.8920 O   0  0  0  0  0  0  0  0  0  0  0  0
   -3.6490   13.0260   23.0740 N   0  0  0  0  0  0  0  0  0  0  0  0
   -3.1650   12.7190   22.2420 H   0  0  0  0  0  0  0  0  0  0  0  0
   -2.9320   12.9700   24.3540 C   0  0  0  0  0  0  0  0  0  0  0  0
   -3.2470   11.6940   25.1270 C   0  0  1  0  0  0  0  0  0  0  0  0
   -2.1300   10.7910   25.0620 O   0  0  0  0  0  0  0  0  0  0  0  0
   -1.3950   11.1540   25.5620 H   0  0  0  0  0  0  0  0  0  0  0  0
   -3.5850   12.0460   26.5860 C   0  0  2  0  0  0  0  0  0  0  0  0
   -3.3640   10.8580   27.5340 C   0  0  2  0  0  0  0  0  0  0  0  0
   -4.0030    9.6920   26.9460 O   0  0  0  0  0  0  0  0  0  0  0  0
   -3.8050    8.4300   27.6650 C   0  0  2  0  0  0  0  0  0  0  0  0
   -4.2410    8.5770   29.1440 C   0  0  0  0  0  0  0  0  0  0  0  0
   -3.6100    9.8220   29.8030 C   0  0  1  0  0  0  0  0  0  0  0  0
   -3.8750   11.0760   28.9700 C   0  0  1  0  0  0  0  0  0  0  0  0
   -3.1960   12.2400   29.5620 N   0  0  0  0  0  0  0  0  0  0  0  0
   -2.1860   12.2370   29.5830 H   0  0  0  0  0  0  0  0  0  0  0  0
   -3.8280   13.3010   30.0720 C   0  0  0  0  0  0  0  0  0  0  0  0
   -5.3680   13.2640   30.0480 C   0  0  0  0  0  0  0  0  0  0  0  0
   -3.2330   14.2680   30.5480 O   0  0  0  0  0  0  0  0  0  0  0  0
   -2.3270    7.9920   27.6040 C   0  0  0  0  0  0  0  0  0  0  0  0
   -1.8150    7.4050   28.5560 O   0  0  0  0  0  0  0  0  0  0  0  0
   -1.6480    8.2250   26.6030 O   0  0  0  0  0  0  0  0  0  0  0  0
   -4.1540   10.0020   31.1110 O   0  0  0  0  0  0  0  0  0  0  0  0
   -3.4440   10.1740   31.7330 H   0  0  0  0  0  0  0  0  0  0  0  0
   -4.6400    7.4220   27.0400 O   0  0  0  0  0  0  0  0  0  0  0  0
   -5.4600    6.6520   27.9560 C   0  0  0  0  0  0  0  0  0  0  0  0
   -4.9450   12.5120   26.6820 O   0  0  0  0  0  0  0  0  0  0  0  0
   -5.0310   13.0990   27.4360 H   0  0  0  0  0  0  0  0  0  0  0  0
  1  2  1  0  0  0  0
  2 32  1  0  0  0  0
  3  2  2  0  0  0  0
  4  5  1  0  0  0  0
  4  3  1  0  0  0  0
  5  1  2  0  0  0  0
  6  4  1  0  0  0  0
  7  6  2  0  0  0  0
  8  7  1  0  0  0  0
  9  8  2  0  0  0  0
  9 10  1  0  0  0  0
 10 11  2  0  0  0  0
 11  6  1  0  0  0  0
 12  9  1  0  0  0  0
 13 12  2  0  0  0  0
 13 14  1  0  0  0  0
 15 14  2  0  0  0  0
 16 15  1  0  0  0  0
 17 16  2  0  0  0  0
 18 19  2  0  0  0  0
 18 16  1  0  0  0  0
 19 13  1  0  0  0  0
 20 21  1  0  0  0  0
 20 19  1  0  0  0  0
 21 26  2  0  0  0  0
 22 23  1  0  0  0  0
 22 21  1  0  0  0  0
 23 24  2  0  0  0  0
 24 25  1  0  0  0  0
 26 25  1  0  0  0  0
 26 12  1  0  0  0  0
 27 23  1  0  0  0  0
 28 27  1  0  0  0  0
 29  8  1  0  0  0  0
 30 29  2  0  0  0  0
 31 29  1  0  0  0  0
 32 33  1  0  0  0  0
 33 34  1  0  0  0  0
 34 36  1  0  0  0  0
 34 35  2  0  0  0  0
 36 38  1  0  0  0  0
 37 36  1  0  0  0  0
 39 38  1  6  0  0  0
 39 42  1  0  0  0  0
 40 39  1  0  0  0  0
 40 41  1  0  0  0  0
 42 61  1  6  0  0  0
 43 42  1  6  0  0  0
 43 48  1  0  0  0  0
 44 43  1  0  0  0  0
 44 45  1  0  0  0  0
 45 59  1  6  0  0  0
 45 46  1  0  0  0  0
 46 47  1  0  0  0  0
 47 57  1  1  0  0  0
 48 49  1  1  0  0  0
 48 47  1  0  0  0  0
 49 50  1  0  0  0  0
 49 51  1  0  0  0  0
 51 53  2  0  0  0  0
 52 51  1  0  0  0  0
 54 45  1  0  0  0  0
 54 55  1  0  0  0  0
 56 54  2  0  0  0  0
 57 58  1  0  0  0  0
 59 60  1  0  0  0  0
 61 62  1  0  0  0  0
M  END
>  <REMARK>
 VINA RESULT:    -6.212      2.643      4.340
 INTER + INTRA:         -15.056
 INTER:                 -11.681
 INTRA:                  -3.375
 UNBOUND:                -3.396
  Name = lig_assembled_34.pdb
  19 active torsions:
  status: ('A' for Active; 'I' for Inactive)
    1  A    between atoms: _2  and  _9
    2  A    between atoms: _4  and  _37
    3  A    between atoms: _6  and  _7
    4  A    between atoms: _6  and  _37
    5  A    between atoms: _11  and  _12
    6  A    between atoms: _13  and  _14
    7  A    between atoms: _18  and  _31
    8  A    between atoms: _33  and  _53
    9  A    between atoms: _35  and  _41
   10  A    between atoms: _36  and  _40
   11  A    between atoms: _40  and  _41
   12  A    between atoms: _43  and  _44
   13  A    between atoms: _45  and  _46
   14  A    between atoms: _47  and  _49
   15  A    between atoms: _49  and  _50
   16  A    between atoms: _49  and  _51
   17  A    between atoms: _51  and  _52
   18  A    between atoms: _51  and  _53
   19  A    between atoms: _54  and  _56
                            x       y       z     vdW  Elec       q    Type
                         _______ _______ _______ _____ _____    ______ ____

>  <TORSDO>
F 17

$$$$
