REMARK VINA RESULT:    -4.148      3.955      6.218
REMARK INTER + INTRA:         -11.049
REMARK INTER:                  -8.204
REMARK INTRA:                  -2.845
REMARK UNBOUND:                -3.505
REMARK  Name = lig_assembled_22.pdb
REMARK  20 active torsions:
REMARK  status: ('A' for Active; 'I' for Inactive)
REMARK    1  A    between atoms: _2  and  _9
REMARK    2  A    between atoms: _4  and  _18
REMARK    3  A    between atoms: _5  and  _9
REMARK    4  A    between atoms: _5  and  _12
REMARK    5  A    between atoms: _6  and  _7
REMARK    6  A    between atoms: _6  and  _18
REMARK    7  A    between atoms: _9  and  _10
REMARK    8  A    between atoms: _9  and  _11
REMARK    9  A    between atoms: _14  and  _34
REMARK   10  A    between atoms: _16  and  _22
REMARK   11  A    between atoms: _17  and  _21
REMARK   12  A    between atoms: _21  and  _22
REMARK   13  A    between atoms: _24  and  _25
REMARK   14  A    between atoms: _26  and  _27
REMARK   15  A    between atoms: _28  and  _30
REMARK   16  A    between atoms: _30  and  _31
REMARK   17  A    between atoms: _30  and  _32
REMARK   18  A    between atoms: _32  and  _33
REMARK   19  A    between atoms: _32  and  _34
REMARK   20  A    between atoms: _35  and  _37
REMARK                            x       y       z     vdW  Elec       q    Type
REMARK                         _______ _______ _______ _____ _____    ______ ____
ROOT
ATOM      1  C   UNL     1      -6.454   9.345  23.443  0.00  0.00    +0.163 C 
ENDROOT
BRANCH   1   2
ATOM      2  O   UNL     1      -6.971   9.602  24.759  0.00  0.00    -0.388 OA
ATOM      3  H   UNL     1      -7.930   9.556  24.742  0.00  0.00    +0.210 HD
ENDBRANCH   1   2
BRANCH   1   4
ATOM      4  C   UNL     1      -7.460   8.529  22.638  0.00  0.00    +0.141 C 
BRANCH   4   7
ATOM      5  C   UNL     1      -7.418   8.803  20.182  0.00  0.00    +0.401 C 
ATOM      6  O   UNL     1      -6.672   7.839  19.993  0.00  0.00    -0.226 OA
ATOM      7  N   UNL     1      -7.831   9.201  21.386  0.00  0.00    -0.279 N 
ATOM      8  H   UNL     1      -8.435  10.010  21.440  0.00  0.00    +0.152 HD
BRANCH   5   9
ATOM      9  O   UNL     1      -7.875   9.558  19.057  0.00  0.00    -0.444 OA
BRANCH   9  10
ATOM     10  C   UNL     1      -7.238  10.838  19.050  0.00  0.00    +0.292 C 
BRANCH  10  12
ATOM     11  N   UNL     1      -5.902  12.203  17.485  0.00  0.00    -0.131 NA
ATOM     12  C   UNL     1      -6.395  10.982  17.848  0.00  0.00    +0.120 A 
ATOM     13  C   UNL     1      -5.971  10.038  16.938  0.00  0.00    +0.138 A 
ATOM     14  N   UNL     1      -5.221  10.747  16.042  0.00  0.00    -0.235 N 
ATOM     15  N   UNL     1      -5.190  12.051  16.380  0.00  0.00    -0.064 NA
BRANCH  14  16
ATOM     16  C   UNL     1      -4.524  10.284  14.840  0.00  0.00    +0.155 C 
ATOM     17  C   UNL     1      -5.040  10.982  13.563  0.00  0.00    +0.048 C 
ATOM     18  C   UNL     1      -4.751   8.768  14.692  0.00  0.00    +0.048 C 
BRANCH  16  19
ATOM     19  C   UNL     1      -3.025  10.571  14.950  0.00  0.00    +0.332 C 
ATOM     20  O   UNL     1      -2.175   9.717  15.173  0.00  0.00    -0.248 OA
BRANCH  19  21
ATOM     21  O   UNL     1      -2.669  11.867  14.781  0.00  0.00    -0.479 OA
ATOM     22  H   UNL     1      -3.312  12.438  14.316  0.00  0.00    +0.295 HD
ENDBRANCH  19  21
ENDBRANCH  16  19
ENDBRANCH  14  16
ENDBRANCH  10  12
ENDBRANCH   9  10
ENDBRANCH   5   9
ENDBRANCH   4   7
ENDBRANCH   1   4
BRANCH   1  23
ATOM     23  C   UNL     1      -5.118   8.586  23.516  0.00  0.00    +0.175 C 
BRANCH  23  24
ATOM     24  C   UNL     1      -4.025   9.405  24.219  0.00  0.00    +0.176 C 
ATOM     25  O   UNL     1      -4.351   9.463  25.635  0.00  0.00    -0.332 OA
ATOM     26  C   UNL     1      -3.357  10.121  26.488  0.00  0.00    +0.277 C 
ATOM     27  C   UNL     1      -3.050  11.544  25.962  0.00  0.00    +0.110 C 
ATOM     28  C   UNL     1      -2.728  11.537  24.453  0.00  0.00    +0.143 C 
ATOM     29  C   UNL     1      -3.826  10.826  23.661  0.00  0.00    +0.133 C 
BRANCH  29  30
ATOM     30  N   UNL     1      -3.467  10.750  22.237  0.00  0.00    -0.308 N 
ATOM     31  H   UNL     1      -2.691  10.157  21.977  0.00  0.00    +0.149 HD
ATOM     32  C   UNL     1      -4.099  11.412  21.264  0.00  0.00    +0.210 C 
ATOM     33  C   UNL     1      -5.260  12.328  21.695  0.00  0.00    +0.109 C 
ATOM     34  O   UNL     1      -3.785  11.317  20.077  0.00  0.00    -0.276 OA
ENDBRANCH  29  30
BRANCH  26  35
ATOM     35  C   UNL     1      -2.052   9.298  26.541  0.00  0.00    +0.414 C 
ATOM     36  O   UNL     1      -0.964   9.867  26.611  0.00  0.00    -0.240 OA
ATOM     37  O   UNL     1      -2.089   8.068  26.514  0.00  0.00    -0.240 OA
ENDBRANCH  26  35
BRANCH  26  38
ATOM     38  O   UNL     1      -3.916  10.236  27.822  0.00  0.00    -0.343 OA
ATOM     39  C   UNL     1      -3.909  11.576  28.375  0.00  0.00    +0.198 C 
ENDBRANCH  26  38
BRANCH  28  40
ATOM     40  O   UNL     1      -2.602  12.879  23.981  0.00  0.00    -0.390 OA
ATOM     41  H   UNL     1      -2.445  12.873  23.034  0.00  0.00    +0.210 HD
ENDBRANCH  28  40
ENDBRANCH  23  24
BRANCH  23  42
ATOM     42  O   UNL     1      -4.685   8.214  22.192  0.00  0.00    -0.387 OA
ATOM     43  H   UNL     1      -4.708   8.984  21.619  0.00  0.00    +0.210 HD
ENDBRANCH  23  42
ENDBRANCH   1  23
TORSDOF 16
