REMARK VINA RESULT:    -4.874      4.253      8.906
REMARK INTER + INTRA:         -11.432
REMARK INTER:                  -8.791
REMARK INTRA:                  -2.641
REMARK UNBOUND:                -2.997
REMARK  Name = lig_assembled_15.pdb
REMARK  16 active torsions:
REMARK  status: ('A' for Active; 'I' for Inactive)
REMARK    1  A    between atoms: _2  and  _9
REMARK    2  A    between atoms: _4  and  _18
REMARK    3  A    between atoms: _6  and  _7
REMARK    4  A    between atoms: _6  and  _18
REMARK    5  A    between atoms: _14  and  _34
REMARK    6  A    between atoms: _16  and  _22
REMARK    7  A    between atoms: _17  and  _21
REMARK    8  A    between atoms: _21  and  _22
REMARK    9  A    between atoms: _24  and  _25
REMARK   10  A    between atoms: _26  and  _27
REMARK   11  A    between atoms: _28  and  _30
REMARK   12  A    between atoms: _30  and  _31
REMARK   13  A    between atoms: _30  and  _32
REMARK   14  A    between atoms: _32  and  _33
REMARK   15  A    between atoms: _32  and  _34
REMARK   16  A    between atoms: _35  and  _37
REMARK                            x       y       z     vdW  Elec       q    Type
REMARK                         _______ _______ _______ _____ _____    ______ ____
ROOT
ATOM      1  C   UNL     1      -2.993  12.089  24.341  0.00  0.00    +0.163 C 
ENDROOT
BRANCH   1   2
ATOM      2  O   UNL     1      -2.127  12.020  25.486  0.00  0.00    -0.388 OA
ATOM      3  H   UNL     1      -1.219  12.167  25.210  0.00  0.00    +0.210 HD
ENDBRANCH   1   2
BRANCH   1   4
ATOM      4  C   UNL     1      -3.959  13.260  24.488  0.00  0.00    +0.141 C 
BRANCH   4   7
ATOM      5  C   UNL     1      -5.155  13.773  22.388  0.00  0.00    +0.401 C 
ATOM      6  O   UNL     1      -4.269  14.513  21.954  0.00  0.00    -0.226 OA
ATOM      7  N   UNL     1      -5.096  13.151  23.566  0.00  0.00    -0.279 N 
ATOM      8  H   UNL     1      -5.878  12.572  23.840  0.00  0.00    +0.152 HD
BRANCH   5   9
ATOM      9  O   UNL     1      -6.329  13.558  21.600  0.00  0.00    -0.444 OA
BRANCH   9  10
ATOM     10  C   UNL     1      -6.564  12.153  21.467  0.00  0.00    +0.292 C 
BRANCH  10  12
ATOM     11  N   UNL     1      -4.916  10.547  20.557  0.00  0.00    -0.131 NA
ATOM     12  C   UNL     1      -5.759  11.602  20.360  0.00  0.00    +0.121 A 
ATOM     13  C   UNL     1      -5.700  11.982  19.039  0.00  0.00    +0.143 A 
ATOM     14  N   UNL     1      -4.820  11.102  18.455  0.00  0.00    -0.220 N 
ATOM     15  N   UNL     1      -4.344  10.253  19.398  0.00  0.00    -0.060 NA
BRANCH  14  16
ATOM     16  C   UNL     1      -4.436  11.003  17.090  0.00  0.00    +0.067 A 
ATOM     17  C   UNL     1      -4.209   9.755  16.495  0.00  0.00    +0.029 A 
ATOM     18  C   UNL     1      -3.792   9.680  15.162  0.00  0.00    +0.017 A 
ATOM     19  C   UNL     1      -3.608  10.848  14.424  0.00  0.00    +0.018 A 
ATOM     20 BR   UNL     1      -3.019  10.739  12.631  0.00  0.00    -0.050 Br
ATOM     21  C   UNL     1      -3.846  12.093  15.001  0.00  0.00    +0.017 A 
ATOM     22  C   UNL     1      -4.263  12.173  16.333  0.00  0.00    +0.029 A 
ENDBRANCH  14  16
ENDBRANCH  10  12
ENDBRANCH   9  10
ENDBRANCH   5   9
ENDBRANCH   4   7
ENDBRANCH   1   4
BRANCH   1  23
ATOM     23  C   UNL     1      -3.790  10.784  24.175  0.00  0.00    +0.175 C 
BRANCH  23  24
ATOM     24  C   UNL     1      -3.813   9.952  25.466  0.00  0.00    +0.176 C 
ATOM     25  O   UNL     1      -2.809   8.908  25.343  0.00  0.00    -0.332 OA
ATOM     26  C   UNL     1      -2.613   8.074  26.533  0.00  0.00    +0.277 C 
ATOM     27  C   UNL     1      -3.957   7.455  26.987  0.00  0.00    +0.110 C 
ATOM     28  C   UNL     1      -5.066   8.523  27.101  0.00  0.00    +0.143 C 
ATOM     29  C   UNL     1      -5.181   9.334  25.810  0.00  0.00    +0.133 C 
BRANCH  29  30
ATOM     30  N   UNL     1      -6.180  10.404  25.962  0.00  0.00    -0.308 N 
ATOM     31  H   UNL     1      -6.074  11.042  26.738  0.00  0.00    +0.149 HD
ATOM     32  C   UNL     1      -7.217  10.588  25.140  0.00  0.00    +0.210 C 
ATOM     33  C   UNL     1      -7.365   9.584  23.981  0.00  0.00    +0.109 C 
ATOM     34  O   UNL     1      -8.029  11.502  25.283  0.00  0.00    -0.276 OA
ENDBRANCH  29  30
BRANCH  26  35
ATOM     35  C   UNL     1      -2.009   8.900  27.687  0.00  0.00    +0.414 C 
ATOM     36  O   UNL     1      -1.351   9.912  27.448  0.00  0.00    -0.240 OA
ATOM     37  O   UNL     1      -2.180   8.556  28.857  0.00  0.00    -0.240 OA
ENDBRANCH  26  35
BRANCH  28  38
ATOM     38  O   UNL     1      -6.317   7.891  27.374  0.00  0.00    -0.390 OA
ATOM     39  H   UNL     1      -7.029   8.413  26.996  0.00  0.00    +0.210 HD
ENDBRANCH  28  38
BRANCH  26  40
ATOM     40  O   UNL     1      -1.709   6.995  26.180  0.00  0.00    -0.343 OA
ATOM     41  C   UNL     1      -2.166   5.668  26.547  0.00  0.00    +0.198 C 
ENDBRANCH  26  40
ENDBRANCH  23  24
BRANCH  23  42
ATOM     42  O   UNL     1      -3.246  10.004  23.092  0.00  0.00    -0.387 OA
ATOM     43  H   UNL     1      -2.952  10.591  22.391  0.00  0.00    +0.210 HD
ENDBRANCH  23  42
ENDBRANCH   1  23
TORSDOF 14
