REMARK VINA RESULT:    -4.922      1.798      4.046
REMARK INTER + INTRA:         -12.730
REMARK INTER:                  -9.670
REMARK INTRA:                  -3.060
REMARK UNBOUND:                -3.060
REMARK  Name = lig_assembled_37.pdb
REMARK  21 active torsions:
REMARK  status: ('A' for Active; 'I' for Inactive)
REMARK    1  A    between atoms: _2  and  _9
REMARK    2  A    between atoms: _4  and  _24
REMARK    3  A    between atoms: _6  and  _7
REMARK    4  A    between atoms: _6  and  _24
REMARK    5  A    between atoms: _9  and  _10
REMARK    6  A    between atoms: _9  and  _11
REMARK    7  A    between atoms: _11  and  _18
REMARK    8  A    between atoms: _12  and  _13
REMARK    9  A    between atoms: _12  and  _18
REMARK   10  A    between atoms: _20  and  _40
REMARK   11  A    between atoms: _22  and  _28
REMARK   12  A    between atoms: _23  and  _27
REMARK   13  A    between atoms: _27  and  _28
REMARK   14  A    between atoms: _30  and  _31
REMARK   15  A    between atoms: _32  and  _33
REMARK   16  A    between atoms: _34  and  _36
REMARK   17  A    between atoms: _36  and  _37
REMARK   18  A    between atoms: _36  and  _38
REMARK   19  A    between atoms: _38  and  _39
REMARK   20  A    between atoms: _38  and  _40
REMARK   21  A    between atoms: _41  and  _43
REMARK                            x       y       z     vdW  Elec       q    Type
REMARK                         _______ _______ _______ _____ _____    ______ ____
ROOT
ATOM      1  C   UNL     1      -2.665   8.405  29.135  0.00  0.00    +0.141 C 
ENDROOT
BRANCH   1   4
ATOM      2  C   UNL     1      -2.898   8.259  26.680  0.00  0.00    +0.401 C 
ATOM      3  O   UNL     1      -1.771   8.703  26.451  0.00  0.00    -0.226 OA
ATOM      4  N   UNL     1      -3.400   8.092  27.904  0.00  0.00    -0.279 N 
ATOM      5  H   UNL     1      -4.339   7.729  27.989  0.00  0.00    +0.152 HD
BRANCH   2   6
ATOM      6  O   UNL     1      -3.738   7.897  25.580  0.00  0.00    -0.444 OA
BRANCH   6   7
ATOM      7  C   UNL     1      -4.905   8.724  25.578  0.00  0.00    +0.292 C 
BRANCH   7   9
ATOM      8  N   UNL     1      -6.148  10.131  23.959  0.00  0.00    -0.131 NA
ATOM      9  C   UNL     1      -4.993   9.487  24.319  0.00  0.00    +0.120 A 
ATOM     10  C   UNL     1      -4.041   9.696  23.347  0.00  0.00    +0.138 A 
ATOM     11  N   UNL     1      -4.683  10.449  22.409  0.00  0.00    -0.238 N 
ATOM     12  N   UNL     1      -5.944  10.723  22.790  0.00  0.00    -0.065 NA
BRANCH  11  13
ATOM     13  C   UNL     1      -4.173  11.005  21.171  0.00  0.00    +0.214 C 
ATOM     14  C   UNL     1      -4.754  10.285  19.954  0.00  0.00    +0.045 C 
BRANCH  13  15
ATOM     15  C   UNL     1      -4.451  12.489  21.083  0.00  0.00    +0.332 C 
ATOM     16  O   UNL     1      -5.394  12.976  20.470  0.00  0.00    -0.248 OA
BRANCH  15  17
ATOM     17  O   UNL     1      -3.518  13.204  21.767  0.00  0.00    -0.458 OA
BRANCH  17  18
ATOM     18  C   UNL     1      -4.014  14.051  22.815  0.00  0.00    +0.267 C 
BRANCH  18  19
ATOM     19  C   UNL     1      -3.875  13.360  24.146  0.00  0.00    -0.010 A 
ATOM     20  C   UNL     1      -2.685  12.700  24.483  0.00  0.00    +0.007 A 
ATOM     21  C   UNL     1      -2.545  12.082  25.727  0.00  0.00    +0.000 A 
ATOM     22  C   UNL     1      -3.593  12.116  26.645  0.00  0.00    +0.000 A 
ATOM     23  C   UNL     1      -4.783  12.762  26.319  0.00  0.00    +0.000 A 
ATOM     24  C   UNL     1      -4.926  13.379  25.074  0.00  0.00    +0.007 A 
ENDBRANCH  18  19
ENDBRANCH  17  18
ENDBRANCH  15  17
ENDBRANCH  13  15
ENDBRANCH  11  13
ENDBRANCH   7   9
ENDBRANCH   6   7
ENDBRANCH   2   6
ENDBRANCH   1   4
BRANCH   1  25
ATOM     25  C   UNL     1      -3.548   9.105  30.163  0.00  0.00    +0.163 C 
BRANCH  25  26
ATOM     26  O   UNL     1      -2.821   9.295  31.388  0.00  0.00    -0.388 OA
ATOM     27  H   UNL     1      -2.370  10.143  31.364  0.00  0.00    +0.210 HD
ENDBRANCH  25  26
BRANCH  25  28
ATOM     28  C   UNL     1      -4.031  10.450  29.595  0.00  0.00    +0.175 C 
BRANCH  28  29
ATOM     29  C   UNL     1      -4.300  11.481  30.701  0.00  0.00    +0.176 C 
ATOM     30  O   UNL     1      -3.016  11.961  31.187  0.00  0.00    -0.332 OA
ATOM     31  C   UNL     1      -3.077  13.037  32.181  0.00  0.00    +0.277 C 
ATOM     32  C   UNL     1      -3.967  12.619  33.377  0.00  0.00    +0.110 C 
ATOM     33  C   UNL     1      -5.332  12.073  32.907  0.00  0.00    +0.143 C 
ATOM     34  C   UNL     1      -5.151  10.961  31.873  0.00  0.00    +0.133 C 
BRANCH  34  35
ATOM     35  N   UNL     1      -6.458  10.508  31.369  0.00  0.00    -0.308 N 
ATOM     36  H   UNL     1      -6.983  11.143  30.784  0.00  0.00    +0.149 HD
ATOM     37  C   UNL     1      -6.995   9.315  31.636  0.00  0.00    +0.210 C 
ATOM     38  C   UNL     1      -6.182   8.382  32.553  0.00  0.00    +0.109 C 
ATOM     39  O   UNL     1      -8.085   8.957  31.188  0.00  0.00    -0.276 OA
ENDBRANCH  34  35
BRANCH  31  40
ATOM     40  C   UNL     1      -3.632  14.331  31.553  0.00  0.00    +0.414 C 
ATOM     41  O   UNL     1      -4.742  14.752  31.877  0.00  0.00    -0.240 OA
ATOM     42  O   UNL     1      -2.970  14.955  30.722  0.00  0.00    -0.240 OA
ENDBRANCH  31  40
BRANCH  31  43
ATOM     43  O   UNL     1      -1.732  13.270  32.673  0.00  0.00    -0.343 OA
ATOM     44  C   UNL     1      -1.648  14.109  33.852  0.00  0.00    +0.198 C 
ENDBRANCH  31  43
BRANCH  33  45
ATOM     45  O   UNL     1      -6.057  11.561  34.026  0.00  0.00    -0.390 OA
ATOM     46  H   UNL     1      -6.458  12.288  34.509  0.00  0.00    +0.210 HD
ENDBRANCH  33  45
ENDBRANCH  28  29
BRANCH  28  47
ATOM     47  O   UNL     1      -5.216  10.256  28.797  0.00  0.00    -0.387 OA
ATOM     48  H   UNL     1      -5.755   9.565  29.188  0.00  0.00    +0.210 HD
ENDBRANCH  28  47
ENDBRANCH  25  28
ENDBRANCH   1  25
TORSDOF 18
