REMARK VINA RESULT:    -4.906      4.354     12.459
REMARK INTER + INTRA:         -13.713
REMARK INTER:                 -10.517
REMARK INTRA:                  -3.195
REMARK UNBOUND:                -3.788
REMARK  Name = lig_assembled_81.pdb
REMARK  22 active torsions:
REMARK  status: ('A' for Active; 'I' for Inactive)
REMARK    1  A    between atoms: _2  and  _12
REMARK    2  A    between atoms: _7  and  _30
REMARK    3  A    between atoms: _8  and  _24
REMARK    4  A    between atoms: _9  and  _10
REMARK    5  A    between atoms: _9  and  _30
REMARK    6  A    between atoms: _14  and  _15
REMARK    7  A    between atoms: _21  and  _22
REMARK    8  A    between atoms: _22  and  _23
REMARK    9  A    between atoms: _23  and  _25
REMARK   10  A    between atoms: _24  and  _25
REMARK   11  A    between atoms: _26  and  _46
REMARK   12  A    between atoms: _28  and  _34
REMARK   13  A    between atoms: _29  and  _33
REMARK   14  A    between atoms: _33  and  _34
REMARK   15  A    between atoms: _36  and  _37
REMARK   16  A    between atoms: _38  and  _39
REMARK   17  A    between atoms: _40  and  _42
REMARK   18  A    between atoms: _42  and  _43
REMARK   19  A    between atoms: _42  and  _44
REMARK   20  A    between atoms: _44  and  _45
REMARK   21  A    between atoms: _44  and  _46
REMARK   22  A    between atoms: _47  and  _49
REMARK                            x       y       z     vdW  Elec       q    Type
REMARK                         _______ _______ _______ _____ _____    ______ ____
ROOT
ATOM      1  C   UNL     1      -3.745  11.971  22.514  0.00  0.00    +0.401 C 
ATOM      2  O   UNL     1      -3.755  13.077  21.969  0.00  0.00    -0.226 OA
ATOM      3  N   UNL     1      -3.919  11.784  23.823  0.00  0.00    -0.279 N 
ATOM      4  H   UNL     1      -3.904  10.838  24.176  0.00  0.00    +0.152 HD
ENDROOT
BRANCH   1   5
ATOM      5  O   UNL     1      -3.541  10.804  21.714  0.00  0.00    -0.444 OA
BRANCH   5   6
ATOM      6  C   UNL     1      -4.806  10.287  21.291  0.00  0.00    +0.289 C 
BRANCH   6   8
ATOM      7  N   UNL     1      -5.052   9.252  19.082  0.00  0.00    -0.130 NA
ATOM      8  C   UNL     1      -4.937  10.389  19.824  0.00  0.00    +0.100 C 
ATOM      9  C   UNL     1      -4.938  11.476  18.970  0.00  0.00    +0.124 C 
ATOM     10  N   UNL     1      -5.202  10.939  17.717  0.00  0.00    -0.187 N 
ATOM     11  N   UNL     1      -5.073   9.599  17.807  0.00  0.00    -0.010 NA
BRANCH  10  12
ATOM     12  C   UNL     1      -5.364  11.634  16.472  0.00  0.00    +0.150 A 
ATOM     13  C   UNL     1      -4.360  11.811  15.488  0.00  0.00    +0.022 A 
ATOM     14  C   UNL     1      -4.783  12.611  14.394  0.00  0.00    +0.081 A 
ATOM     15  N   UNL     1      -6.012  13.195  14.368  0.00  0.00    -0.214 NA
ATOM     16  C   UNL     1      -6.856  12.978  15.363  0.00  0.00    +0.215 A 
ATOM     17  N   UNL     1      -8.055  13.648  15.361  0.00  0.00    -0.327 N 
ATOM     18  H   UNL     1      -8.305  13.950  14.431  0.00  0.00    +0.145 HD
ATOM     19  H   UNL     1      -8.748  13.180  15.925  0.00  0.00    +0.145 HD
ATOM     20  N   UNL     1      -6.619  12.150  16.362  0.00  0.00    -0.198 NA
BRANCH  14  21
ATOM     21  C   UNL     1      -4.005  12.971  13.148  0.00  0.00    +0.001 A 
ATOM     22  C   UNL     1      -4.130  12.327  11.903  0.00  0.00    +0.010 A 
ATOM     23  C   UNL     1      -3.387  12.716  10.776  0.00  0.00    +0.001 A 
ATOM     24  C   UNL     1      -2.535  13.803  10.834  0.00  0.00    +0.000 A 
ATOM     25  C   UNL     1      -2.419  14.508  12.030  0.00  0.00    +0.001 A 
ATOM     26  C   UNL     1      -3.133  14.086  13.161  0.00  0.00    +0.010 A 
ENDBRANCH  14  21
BRANCH  13  27
ATOM     27  C   UNL     1      -2.969  11.174  15.416  0.00  0.00    +0.069 C 
BRANCH  27  28
ATOM     28  C   UNL     1      -2.754   9.832  14.742  0.00  0.00    +0.164 C 
BRANCH  28  29
ATOM     29  O   UNL     1      -2.075   9.856  13.481  0.00  0.00    -0.380 OA
BRANCH  29  30
ATOM     30  C   UNL     1      -2.745   8.894  12.643  0.00  0.00    +0.156 C 
ATOM     31  C   UNL     1      -4.200   8.740  13.022  0.00  0.00    +0.034 C 
ENDBRANCH  29  30
ENDBRANCH  28  29
ENDBRANCH  27  28
ENDBRANCH  13  27
ENDBRANCH  10  12
ENDBRANCH   6   8
ENDBRANCH   5   6
ENDBRANCH   1   5
BRANCH   3  32
ATOM     32  C   UNL     1      -4.131  12.877  24.781  0.00  0.00    +0.141 C 
BRANCH  32  33
ATOM     33  C   UNL     1      -5.458  12.736  25.520  0.00  0.00    +0.163 C 
BRANCH  33  34
ATOM     34  O   UNL     1      -6.086  11.491  25.170  0.00  0.00    -0.388 OA
ATOM     35  H   UNL     1      -6.295  11.491  24.233  0.00  0.00    +0.210 HD
ENDBRANCH  33  34
BRANCH  33  36
ATOM     36  C   UNL     1      -5.212  12.820  27.037  0.00  0.00    +0.175 C 
BRANCH  36  37
ATOM     37  C   UNL     1      -4.094  11.873  27.495  0.00  0.00    +0.176 C 
ATOM     38  O   UNL     1      -4.345  10.567  26.908  0.00  0.00    -0.332 OA
ATOM     39  C   UNL     1      -3.315   9.553  27.152  0.00  0.00    +0.277 C 
ATOM     40  C   UNL     1      -3.053   9.402  28.670  0.00  0.00    +0.110 C 
ATOM     41  C   UNL     1      -2.811  10.769  29.345  0.00  0.00    +0.143 C 
ATOM     42  C   UNL     1      -3.941  11.747  29.022  0.00  0.00    +0.133 C 
BRANCH  42  43
ATOM     43  N   UNL     1      -3.657  13.071  29.598  0.00  0.00    -0.308 N 
ATOM     44  H   UNL     1      -2.880  13.594  29.218  0.00  0.00    +0.149 HD
ATOM     45  C   UNL     1      -4.357  13.627  30.591  0.00  0.00    +0.210 C 
ATOM     46  C   UNL     1      -5.518  12.793  31.166  0.00  0.00    +0.109 C 
ATOM     47  O   UNL     1      -4.105  14.744  31.043  0.00  0.00    -0.276 OA
ENDBRANCH  42  43
BRANCH  39  48
ATOM     48  C   UNL     1      -2.000   9.926  26.436  0.00  0.00    +0.414 C 
ATOM     49  O   UNL     1      -0.920   9.775  27.005  0.00  0.00    -0.240 OA
ATOM     50  O   UNL     1      -2.019  10.378  25.290  0.00  0.00    -0.240 OA
ENDBRANCH  39  48
BRANCH  39  51
ATOM     51  O   UNL     1      -3.804   8.285  26.644  0.00  0.00    -0.343 OA
ATOM     52  C   UNL     1      -4.973   8.377  25.790  0.00  0.00    +0.198 C 
ENDBRANCH  39  51
BRANCH  41  53
ATOM     53  O   UNL     1      -2.726  10.599  30.760  0.00  0.00    -0.390 OA
ATOM     54  H   UNL     1      -2.227   9.803  30.958  0.00  0.00    +0.210 HD
ENDBRANCH  41  53
ENDBRANCH  36  37
BRANCH  36  55
ATOM     55  O   UNL     1      -6.430  12.535  27.753  0.00  0.00    -0.387 OA
ATOM     56  H   UNL     1      -7.180  12.635  27.163  0.00  0.00    +0.210 HD
ENDBRANCH  36  55
ENDBRANCH  33  36
ENDBRANCH  32  33
ENDBRANCH   3  32
TORSDOF 19
