REMARK VINA RESULT:    -4.663      2.595      5.783
REMARK INTER + INTRA:         -11.051
REMARK INTER:                  -8.526
REMARK INTRA:                  -2.525
REMARK UNBOUND:                -2.299
REMARK  Name = lig_assembled_32.pdb
REMARK  19 active torsions:
REMARK  status: ('A' for Active; 'I' for Inactive)
REMARK    1  A    between atoms: _2  and  _9
REMARK    2  A    between atoms: _4  and  _17
REMARK    3  A    between atoms: _5  and  _10
REMARK    4  A    between atoms: _5  and  _11
REMARK    5  A    between atoms: _6  and  _7
REMARK    6  A    between atoms: _6  and  _17
REMARK    7  A    between atoms: _9  and  _10
REMARK    8  A    between atoms: _13  and  _33
REMARK    9  A    between atoms: _15  and  _21
REMARK   10  A    between atoms: _16  and  _20
REMARK   11  A    between atoms: _20  and  _21
REMARK   12  A    between atoms: _23  and  _24
REMARK   13  A    between atoms: _25  and  _26
REMARK   14  A    between atoms: _27  and  _29
REMARK   15  A    between atoms: _29  and  _30
REMARK   16  A    between atoms: _29  and  _31
REMARK   17  A    between atoms: _31  and  _32
REMARK   18  A    between atoms: _31  and  _33
REMARK   19  A    between atoms: _34  and  _36
REMARK                            x       y       z     vdW  Elec       q    Type
REMARK                         _______ _______ _______ _____ _____    ______ ____
ROOT
ATOM      1  C   UNL     1      -4.085   9.061  23.808  0.00  0.00    +0.163 C 
ENDROOT
BRANCH   1   2
ATOM      2  O   UNL     1      -3.608   8.470  22.588  0.00  0.00    -0.388 OA
ATOM      3  H   UNL     1      -2.785   8.007  22.756  0.00  0.00    +0.210 HD
ENDBRANCH   1   2
BRANCH   1   4
ATOM      4  C   UNL     1      -5.497   9.641  23.624  0.00  0.00    +0.175 C 
BRANCH   4   5
ATOM      5  C   UNL     1      -5.475  10.998  22.905  0.00  0.00    +0.176 C 
ATOM      6  O   UNL     1      -5.203  10.754  21.498  0.00  0.00    -0.332 OA
ATOM      7  C   UNL     1      -5.249  11.935  20.629  0.00  0.00    +0.277 C 
ATOM      8  C   UNL     1      -4.300  13.036  21.163  0.00  0.00    +0.110 C 
ATOM      9  C   UNL     1      -4.531  13.308  22.664  0.00  0.00    +0.143 C 
ATOM     10  C   UNL     1      -4.465  12.012  23.473  0.00  0.00    +0.133 C 
BRANCH  10  11
ATOM     11  N   UNL     1      -4.772  12.272  24.888  0.00  0.00    -0.308 N 
ATOM     12  H   UNL     1      -5.732  12.470  25.134  0.00  0.00    +0.149 HD
ATOM     13  C   UNL     1      -3.865  12.263  25.869  0.00  0.00    +0.210 C 
ATOM     14  C   UNL     1      -2.407  11.984  25.458  0.00  0.00    +0.109 C 
ATOM     15  O   UNL     1      -4.154  12.470  27.048  0.00  0.00    -0.276 OA
ENDBRANCH  10  11
BRANCH   7  16
ATOM     16  C   UNL     1      -6.685  12.491  20.538  0.00  0.00    +0.414 C 
ATOM     17  O   UNL     1      -6.875  13.702  20.426  0.00  0.00    -0.240 OA
ATOM     18  O   UNL     1      -7.653  11.730  20.575  0.00  0.00    -0.240 OA
ENDBRANCH   7  16
BRANCH   7  19
ATOM     19  O   UNL     1      -4.794  11.539  19.310  0.00  0.00    -0.343 OA
ATOM     20  C   UNL     1      -4.946  10.129  19.007  0.00  0.00    +0.198 C 
ENDBRANCH   7  19
BRANCH   9  21
ATOM     21  O   UNL     1      -3.539  14.215  23.147  0.00  0.00    -0.390 OA
ATOM     22  H   UNL     1      -3.260  13.947  24.026  0.00  0.00    +0.210 HD
ENDBRANCH   9  21
ENDBRANCH   4   5
BRANCH   4  23
ATOM     23  O   UNL     1      -6.153   9.767  24.902  0.00  0.00    -0.387 OA
ATOM     24  H   UNL     1      -6.622  10.604  24.940  0.00  0.00    +0.210 HD
ENDBRANCH   4  23
ENDBRANCH   1   4
BRANCH   1  25
ATOM     25  C   UNL     1      -4.103   8.017  24.920  0.00  0.00    +0.141 C 
BRANCH  25  28
ATOM     26  C   UNL     1      -2.631   8.601  26.817  0.00  0.00    +0.401 C 
ATOM     27  O   UNL     1      -1.629   8.081  26.321  0.00  0.00    -0.226 OA
ATOM     28  N   UNL     1      -3.831   8.613  26.234  0.00  0.00    -0.279 N 
ATOM     29  H   UNL     1      -4.595   9.056  26.725  0.00  0.00    +0.152 HD
BRANCH  26  30
ATOM     30  O   UNL     1      -2.525   9.232  28.096  0.00  0.00    -0.444 OA
BRANCH  30  31
ATOM     31  C   UNL     1      -3.834   9.472  28.620  0.00  0.00    +0.292 C 
BRANCH  31  33
ATOM     32  N   UNL     1      -2.870   9.706  30.887  0.00  0.00    -0.131 NA
ATOM     33  C   UNL     1      -3.747  10.144  29.930  0.00  0.00    +0.120 A 
ATOM     34  C   UNL     1      -4.447  11.224  30.421  0.00  0.00    +0.137 A 
ATOM     35  N   UNL     1      -3.958  11.383  31.681  0.00  0.00    -0.251 N 
ATOM     36  N   UNL     1      -3.010  10.472  31.959  0.00  0.00    -0.065 NA
BRANCH  35  37
ATOM     37  C   UNL     1      -4.332  12.369  32.669  0.00  0.00    +0.156 C 
BRANCH  37  38
ATOM     38  C   UNL     1      -3.650  13.708  32.426  0.00  0.00    +0.143 C 
BRANCH  38  39
ATOM     39  C   UNL     1      -2.174  13.591  32.677  0.00  0.00    +0.306 C 
ATOM     40  O   UNL     1      -1.304  14.028  31.941  0.00  0.00    -0.251 OA
BRANCH  39  41
ATOM     41  O   UNL     1      -1.890  12.926  33.820  0.00  0.00    -0.481 OA
ATOM     42  H   UNL     1      -1.461  12.059  33.684  0.00  0.00    +0.295 HD
ENDBRANCH  39  41
ENDBRANCH  38  39
ENDBRANCH  37  38
ENDBRANCH  35  37
ENDBRANCH  31  33
ENDBRANCH  30  31
ENDBRANCH  26  30
ENDBRANCH  25  28
ENDBRANCH   1  25
TORSDOF 17
