REMARK VINA RESULT:    -3.692      2.251      8.075
REMARK INTER + INTRA:         -10.085
REMARK INTER:                  -7.469
REMARK INTRA:                  -2.616
REMARK UNBOUND:                -3.048
REMARK  Name = lig_assembled_50.pdb
REMARK  20 active torsions:
REMARK  status: ('A' for Active; 'I' for Inactive)
REMARK    1  A    between atoms: _2  and  _9
REMARK    2  A    between atoms: _4  and  _17
REMARK    3  A    between atoms: _5  and  _10
REMARK    4  A    between atoms: _5  and  _11
REMARK    5  A    between atoms: _6  and  _7
REMARK    6  A    between atoms: _6  and  _17
REMARK    7  A    between atoms: _9  and  _10
REMARK    8  A    between atoms: _10  and  _12
REMARK    9  A    between atoms: _13  and  _33
REMARK   10  A    between atoms: _15  and  _21
REMARK   11  A    between atoms: _16  and  _20
REMARK   12  A    between atoms: _20  and  _21
REMARK   13  A    between atoms: _23  and  _24
REMARK   14  A    between atoms: _25  and  _26
REMARK   15  A    between atoms: _27  and  _29
REMARK   16  A    between atoms: _29  and  _30
REMARK   17  A    between atoms: _29  and  _31
REMARK   18  A    between atoms: _31  and  _32
REMARK   19  A    between atoms: _31  and  _33
REMARK   20  A    between atoms: _34  and  _36
REMARK                            x       y       z     vdW  Elec       q    Type
REMARK                         _______ _______ _______ _____ _____    ______ ____
ROOT
ATOM      1  C   UNL     1      -4.546   8.998  24.058  0.00  0.00    +0.163 C 
ENDROOT
BRANCH   1   2
ATOM      2  O   UNL     1      -3.992   8.422  22.863  0.00  0.00    -0.388 OA
ATOM      3  H   UNL     1      -4.701   8.079  22.314  0.00  0.00    +0.210 HD
ENDBRANCH   1   2
BRANCH   1   4
ATOM      4  C   UNL     1      -5.968   9.526  23.806  0.00  0.00    +0.175 C 
BRANCH   4   5
ATOM      5  C   UNL     1      -5.962  10.883  23.086  0.00  0.00    +0.176 C 
ATOM      6  O   UNL     1      -5.643  10.646  21.687  0.00  0.00    -0.332 OA
ATOM      7  C   UNL     1      -5.696  11.824  20.816  0.00  0.00    +0.277 C 
ATOM      8  C   UNL     1      -4.792  12.950  21.375  0.00  0.00    +0.110 C 
ATOM      9  C   UNL     1      -5.072  13.217  22.869  0.00  0.00    +0.143 C 
ATOM     10  C   UNL     1      -4.995  11.924  23.681  0.00  0.00    +0.133 C 
BRANCH  10  11
ATOM     11  N   UNL     1      -5.348  12.176  25.087  0.00  0.00    -0.308 N 
ATOM     12  H   UNL     1      -6.317  12.368  25.302  0.00  0.00    +0.149 HD
ATOM     13  C   UNL     1      -4.474  12.168  26.096  0.00  0.00    +0.210 C 
ATOM     14  C   UNL     1      -3.002  11.898  25.731  0.00  0.00    +0.109 C 
ATOM     15  O   UNL     1      -4.801  12.368  27.266  0.00  0.00    -0.276 OA
ENDBRANCH  10  11
BRANCH   7  16
ATOM     16  C   UNL     1      -7.143  12.342  20.684  0.00  0.00    +0.414 C 
ATOM     17  O   UNL     1      -7.356  13.515  20.377  0.00  0.00    -0.240 OA
ATOM     18  O   UNL     1      -8.096  11.589  20.883  0.00  0.00    -0.240 OA
ENDBRANCH   7  16
BRANCH   9  19
ATOM     19  O   UNL     1      -4.119  14.150  23.379  0.00  0.00    -0.390 OA
ATOM     20  H   UNL     1      -3.249  13.744  23.394  0.00  0.00    +0.210 HD
ENDBRANCH   9  19
BRANCH   7  21
ATOM     21  O   UNL     1      -5.193  11.440  19.511  0.00  0.00    -0.343 OA
ATOM     22  C   UNL     1      -5.000  10.015  19.324  0.00  0.00    +0.198 C 
ENDBRANCH   7  21
ENDBRANCH   4   5
BRANCH   4  23
ATOM     23  O   UNL     1      -6.688   9.628  25.051  0.00  0.00    -0.387 OA
ATOM     24  H   UNL     1      -7.224   8.841  25.176  0.00  0.00    +0.210 HD
ENDBRANCH   4  23
ENDBRANCH   1   4
BRANCH   1  25
ATOM     25  C   UNL     1      -4.579   7.957  25.171  0.00  0.00    +0.141 C 
BRANCH  25  28
ATOM     26  C   UNL     1      -2.987   8.565  26.960  0.00  0.00    +0.401 C 
ATOM     27  O   UNL     1      -2.006   8.098  26.376  0.00  0.00    -0.226 OA
ATOM     28  N   UNL     1      -4.228   8.537  26.474  0.00  0.00    -0.279 N 
ATOM     29  H   UNL     1      -4.969   8.937  27.032  0.00  0.00    +0.152 HD
BRANCH  26  30
ATOM     30  O   UNL     1      -2.807   9.174  28.241  0.00  0.00    -0.444 OA
BRANCH  30  31
ATOM     31  C   UNL     1      -4.076   9.324  28.882  0.00  0.00    +0.292 C 
BRANCH  31  33
ATOM     32  N   UNL     1      -3.001   9.627  31.095  0.00  0.00    -0.131 NA
ATOM     33  C   UNL     1      -3.925  10.037  30.166  0.00  0.00    +0.120 A 
ATOM     34  C   UNL     1      -4.589  11.146  30.650  0.00  0.00    +0.137 A 
ATOM     35  N   UNL     1      -4.032  11.351  31.872  0.00  0.00    -0.249 N 
ATOM     36  N   UNL     1      -3.066  10.449  32.131  0.00  0.00    -0.065 NA
BRANCH  35  37
ATOM     37  C   UNL     1      -4.360  12.365  32.849  0.00  0.00    +0.178 C 
BRANCH  37  38
ATOM     38  C   UNL     1      -3.332  13.498  32.943  0.00  0.00    +0.161 C 
BRANCH  38  39
ATOM     39  O   UNL     1      -2.134  13.102  33.617  0.00  0.00    -0.388 OA
ATOM     40  H   UNL     1      -1.370  13.502  33.154  0.00  0.00    +0.210 HD
ENDBRANCH  38  39
BRANCH  38  41
ATOM     41  C   UNL     1      -2.981  14.123  31.586  0.00  0.00    +0.189 C 
BRANCH  41  42
ATOM     42  O   UNL     1      -1.569  14.150  31.377  0.00  0.00    -0.392 OA
ATOM     43  H   UNL     1      -1.401  14.522  30.490  0.00  0.00    +0.210 HD
ENDBRANCH  41  42
ENDBRANCH  38  41
ENDBRANCH  37  38
ENDBRANCH  35  37
ENDBRANCH  31  33
ENDBRANCH  30  31
ENDBRANCH  26  30
ENDBRANCH  25  28
ENDBRANCH   1  25
TORSDOF 18
