REMARK VINA RESULT:    -5.135      4.980      7.739
REMARK INTER + INTRA:         -10.884
REMARK INTER:                  -8.152
REMARK INTRA:                  -2.732
REMARK UNBOUND:                -1.997
REMARK  Name = lig_assembled_57.pdb
REMARK  17 active torsions:
REMARK  status: ('A' for Active; 'I' for Inactive)
REMARK    1  A    between atoms: _2  and  _10
REMARK    2  A    between atoms: _3  and  _13
REMARK    3  A    between atoms: _5  and  _19
REMARK    4  A    between atoms: _7  and  _8
REMARK    5  A    between atoms: _7  and  _19
REMARK    6  A    between atoms: _15  and  _35
REMARK    7  A    between atoms: _17  and  _23
REMARK    8  A    between atoms: _18  and  _22
REMARK    9  A    between atoms: _22  and  _23
REMARK   10  A    between atoms: _25  and  _26
REMARK   11  A    between atoms: _27  and  _28
REMARK   12  A    between atoms: _29  and  _31
REMARK   13  A    between atoms: _31  and  _32
REMARK   14  A    between atoms: _31  and  _33
REMARK   15  A    between atoms: _33  and  _34
REMARK   16  A    between atoms: _33  and  _35
REMARK   17  A    between atoms: _36  and  _38
REMARK                            x       y       z     vdW  Elec       q    Type
REMARK                         _______ _______ _______ _____ _____    ______ ____
ROOT
ATOM      1  C   UNL     1      -5.113   7.407  23.648  0.00  0.00    +0.163 C 
ENDROOT
BRANCH   1   2
ATOM      2  O   UNL     1      -3.904   6.884  24.223  0.00  0.00    -0.388 OA
ATOM      3  H   UNL     1      -4.121   6.186  24.845  0.00  0.00    +0.210 HD
ENDBRANCH   1   2
BRANCH   1   4
ATOM      4  C   UNL     1      -5.543   6.545  22.466  0.00  0.00    +0.141 C 
BRANCH   4   7
ATOM      5  C   UNL     1      -5.910   7.106  20.087  0.00  0.00    +0.401 C 
ATOM      6  O   UNL     1      -5.203   6.189  19.664  0.00  0.00    -0.226 OA
ATOM      7  N   UNL     1      -6.119   7.350  21.382  0.00  0.00    -0.279 N 
ATOM      8  H   UNL     1      -6.708   8.133  21.631  0.00  0.00    +0.152 HD
BRANCH   5   9
ATOM      9  O   UNL     1      -6.550   7.978  19.152  0.00  0.00    -0.444 OA
BRANCH   9  10
ATOM     10  C   UNL     1      -6.538   9.315  19.659  0.00  0.00    +0.292 C 
BRANCH  10  12
ATOM     11  N   UNL     1      -6.640  11.449  18.420  0.00  0.00    -0.131 NA
ATOM     12  C   UNL     1      -6.037  10.241  18.627  0.00  0.00    +0.120 A 
ATOM     13  C   UNL     1      -4.965  10.119  17.769  0.00  0.00    +0.137 A 
ATOM     14  N   UNL     1      -4.912  11.321  17.129  0.00  0.00    -0.248 N 
ATOM     15  N   UNL     1      -5.969  12.086  17.475  0.00  0.00    -0.065 NA
BRANCH  14  16
ATOM     16  C   UNL     1      -3.909  11.887  16.234  0.00  0.00    +0.111 C 
ATOM     17  C   UNL     1      -3.191  10.778  15.451  0.00  0.00    +0.042 C 
ATOM     18  C   UNL     1      -4.101  10.218  14.359  0.00  0.00    +0.086 C 
ATOM     19  N   UNL     1      -4.540  11.239  13.402  0.00  0.00    -0.305 NA
ATOM     20  C   UNL     1      -5.177  12.384  14.055  0.00  0.00    +0.086 C 
ATOM     21  C   UNL     1      -3.477  11.630  12.481  0.00  0.00    +0.104 C 
ATOM     22  C   UNL     1      -4.404  12.961  15.250  0.00  0.00    +0.042 C 
ENDBRANCH  14  16
ENDBRANCH  10  12
ENDBRANCH   9  10
ENDBRANCH   5   9
ENDBRANCH   4   7
ENDBRANCH   1   4
BRANCH   1  23
ATOM     23  C   UNL     1      -4.916   8.859  23.180  0.00  0.00    +0.175 C 
BRANCH  23  24
ATOM     24  C   UNL     1      -3.893   9.611  24.043  0.00  0.00    +0.176 C 
ATOM     25  O   UNL     1      -4.287   9.463  25.435  0.00  0.00    -0.332 OA
ATOM     26  C   UNL     1      -3.362  10.031  26.420  0.00  0.00    +0.277 C 
ATOM     27  C   UNL     1      -3.089  11.523  26.109  0.00  0.00    +0.110 C 
ATOM     28  C   UNL     1      -2.697  11.735  24.631  0.00  0.00    +0.143 C 
ATOM     29  C   UNL     1      -3.726  11.102  23.695  0.00  0.00    +0.133 C 
BRANCH  29  30
ATOM     30  N   UNL     1      -3.298  11.234  22.293  0.00  0.00    -0.308 N 
ATOM     31  H   UNL     1      -2.468  10.734  22.005  0.00  0.00    +0.149 HD
ATOM     32  C   UNL     1      -3.932  11.971  21.378  0.00  0.00    +0.210 C 
ATOM     33  C   UNL     1      -5.178  12.741  21.856  0.00  0.00    +0.109 C 
ATOM     34  O   UNL     1      -3.558  12.051  20.207  0.00  0.00    -0.276 OA
ENDBRANCH  29  30
BRANCH  26  35
ATOM     35  C   UNL     1      -2.028   9.255  26.429  0.00  0.00    +0.414 C 
ATOM     36  O   UNL     1      -0.960   9.859  26.512  0.00  0.00    -0.240 OA
ATOM     37  O   UNL     1      -2.021   8.026  26.354  0.00  0.00    -0.240 OA
ENDBRANCH  26  35
BRANCH  28  38
ATOM     38  O   UNL     1      -2.604  13.132  24.353  0.00  0.00    -0.390 OA
ATOM     39  H   UNL     1      -1.780  13.314  23.894  0.00  0.00    +0.210 HD
ENDBRANCH  28  38
BRANCH  26  40
ATOM     40  O   UNL     1      -3.987   9.943  27.726  0.00  0.00    -0.343 OA
ATOM     41  C   UNL     1      -4.033  11.188  28.468  0.00  0.00    +0.198 C 
ENDBRANCH  26  40
ENDBRANCH  23  24
BRANCH  23  42
ATOM     42  O   UNL     1      -6.177   9.557  23.184  0.00  0.00    -0.387 OA
ATOM     43  H   UNL     1      -6.165  10.238  23.861  0.00  0.00    +0.210 HD
ENDBRANCH  23  42
ENDBRANCH   1  23
TORSDOF 14
