REMARK VINA RESULT:    -5.048      5.658     12.925
REMARK INTER + INTRA:         -12.632
REMARK INTER:                  -9.318
REMARK INTRA:                  -3.314
REMARK UNBOUND:                -3.157
REMARK  Name = lig_assembled_64.pdb
REMARK  19 active torsions:
REMARK  status: ('A' for Active; 'I' for Inactive)
REMARK    1  A    between atoms: _2  and  _10
REMARK    2  A    between atoms: _5  and  _27
REMARK    3  A    between atoms: _7  and  _8
REMARK    4  A    between atoms: _7  and  _27
REMARK    5  A    between atoms: _12  and  _13
REMARK    6  A    between atoms: _13  and  _21
REMARK    7  A    between atoms: _14  and  _15
REMARK    8  A    between atoms: _23  and  _43
REMARK    9  A    between atoms: _25  and  _31
REMARK   10  A    between atoms: _26  and  _30
REMARK   11  A    between atoms: _30  and  _31
REMARK   12  A    between atoms: _33  and  _34
REMARK   13  A    between atoms: _35  and  _36
REMARK   14  A    between atoms: _37  and  _39
REMARK   15  A    between atoms: _39  and  _40
REMARK   16  A    between atoms: _39  and  _41
REMARK   17  A    between atoms: _41  and  _42
REMARK   18  A    between atoms: _41  and  _43
REMARK   19  A    between atoms: _44  and  _46
REMARK                            x       y       z     vdW  Elec       q    Type
REMARK                         _______ _______ _______ _____ _____    ______ ____
ROOT
ATOM      1  C   UNL     1      -2.280   5.948  25.612  0.00  0.00    +0.401 C 
ATOM      2  O   UNL     1      -1.066   6.087  25.441  0.00  0.00    -0.226 OA
ATOM      3  N   UNL     1      -2.883   6.056  26.797  0.00  0.00    -0.279 N 
ATOM      4  H   UNL     1      -3.885   5.934  26.835  0.00  0.00    +0.152 HD
ENDROOT
BRANCH   3   5
ATOM      5  C   UNL     1      -2.172   6.340  28.050  0.00  0.00    +0.141 C 
BRANCH   5   6
ATOM      6  C   UNL     1      -2.921   7.351  28.912  0.00  0.00    +0.163 C 
BRANCH   6   7
ATOM      7  O   UNL     1      -2.264   7.497  30.181  0.00  0.00    -0.388 OA
ATOM      8  H   UNL     1      -2.110   8.428  30.357  0.00  0.00    +0.210 HD
ENDBRANCH   6   7
BRANCH   6   9
ATOM      9  C   UNL     1      -2.999   8.698  28.174  0.00  0.00    +0.175 C 
BRANCH   9  10
ATOM     10  C   UNL     1      -3.215   9.874  29.138  0.00  0.00    +0.176 C 
ATOM     11  O   UNL     1      -4.160   9.447  30.158  0.00  0.00    -0.332 OA
ATOM     12  C   UNL     1      -4.409  10.412  31.234  0.00  0.00    +0.277 C 
ATOM     13  C   UNL     1      -4.851  11.775  30.647  0.00  0.00    +0.110 C 
ATOM     14  C   UNL     1      -3.894  12.254  29.536  0.00  0.00    +0.143 C 
ATOM     15  C   UNL     1      -3.704  11.173  28.471  0.00  0.00    +0.133 C 
BRANCH  15  16
ATOM     16  N   UNL     1      -2.724  11.608  27.464  0.00  0.00    -0.308 N 
ATOM     17  H   UNL     1      -1.755  11.668  27.744  0.00  0.00    +0.149 HD
ATOM     18  C   UNL     1      -3.031  11.929  26.204  0.00  0.00    +0.210 C 
ATOM     19  C   UNL     1      -4.519  11.852  25.816  0.00  0.00    +0.109 C 
ATOM     20  O   UNL     1      -2.186  12.276  25.378  0.00  0.00    -0.276 OA
ENDBRANCH  15  16
BRANCH  12  21
ATOM     21  C   UNL     1      -3.145  10.608  32.096  0.00  0.00    +0.414 C 
ATOM     22  O   UNL     1      -2.518   9.633  32.508  0.00  0.00    -0.240 OA
ATOM     23  O   UNL     1      -2.752  11.740  32.380  0.00  0.00    -0.240 OA
ENDBRANCH  12  21
BRANCH  12  24
ATOM     24  O   UNL     1      -5.486   9.897  32.057  0.00  0.00    -0.343 OA
ATOM     25  C   UNL     1      -6.415   9.019  31.372  0.00  0.00    +0.198 C 
ENDBRANCH  12  24
BRANCH  14  26
ATOM     26  O   UNL     1      -4.420  13.431  28.922  0.00  0.00    -0.390 OA
ATOM     27  H   UNL     1      -5.134  13.191  28.326  0.00  0.00    +0.210 HD
ENDBRANCH  14  26
ENDBRANCH   9  10
BRANCH   9  28
ATOM     28  O   UNL     1      -4.050   8.665  27.188  0.00  0.00    -0.387 OA
ATOM     29  H   UNL     1      -3.914   9.369  26.550  0.00  0.00    +0.210 HD
ENDBRANCH   9  28
ENDBRANCH   6   9
ENDBRANCH   5   6
ENDBRANCH   3   5
BRANCH   1  30
ATOM     30  O   UNL     1      -3.111   5.658  24.486  0.00  0.00    -0.444 OA
BRANCH  30  31
ATOM     31  C   UNL     1      -4.461   6.029  24.780  0.00  0.00    +0.292 C 
BRANCH  31  33
ATOM     32  N   UNL     1      -6.158   7.600  23.881  0.00  0.00    -0.131 NA
ATOM     33  C   UNL     1      -4.853   7.216  23.997  0.00  0.00    +0.121 A 
ATOM     34  C   UNL     1      -4.064   8.095  23.293  0.00  0.00    +0.143 A 
ATOM     35  N   UNL     1      -4.941   9.005  22.750  0.00  0.00    -0.220 N 
ATOM     36  N   UNL     1      -6.204   8.689  23.124  0.00  0.00    -0.060 NA
BRANCH  35  37
ATOM     37  C   UNL     1      -4.654  10.122  21.928  0.00  0.00    +0.071 A 
ATOM     38  C   UNL     1      -4.244  11.324  22.495  0.00  0.00    +0.063 A 
ATOM     39  CA  UNL     1      -3.980  12.374  21.639  0.00  0.00    +0.150 A 
ATOM     40  N   UNL     1      -4.099  12.323  20.281  0.00  0.00    -0.240 NA
ATOM     41  C   UNL     1      -4.514  11.147  19.736  0.00  0.00    +0.074 A 
ATOM     42  C   UNL     1      -4.785  10.031  20.533  0.00  0.00    +0.056 A 
BRANCH  41  43
ATOM     43  C   UNL     1      -4.679  11.148  18.262  0.00  0.00    +0.000 A 
ATOM     44  C   UNL     1      -4.080  12.123  17.443  0.00  0.00    +0.010 A 
ATOM     45  C   UNL     1      -4.212  12.091  16.049  0.00  0.00    +0.001 A 
ATOM     46  C   UNL     1      -4.948  11.081  15.439  0.00  0.00    +0.000 A 
ATOM     47  C   UNL     1      -5.558  10.107  16.223  0.00  0.00    +0.001 A 
ATOM     48  C   UNL     1      -5.425  10.142  17.616  0.00  0.00    +0.010 A 
ENDBRANCH  41  43
BRANCH  39  49
ATOM     49  C   UNL     1      -3.539  13.683  22.203  0.00  0.00    +0.355 C 
ATOM     50  OXT UNL     1      -3.994  14.188  23.213  0.00  0.00    -0.243 OA
BRANCH  49  51
ATOM     51  O   UNL     1      -2.567  14.230  21.437  0.00  0.00    -0.476 OA
ATOM     52  H   UNL     1      -1.689  13.988  21.812  0.00  0.00    +0.295 HD
ENDBRANCH  49  51
ENDBRANCH  39  49
ENDBRANCH  35  37
ENDBRANCH  31  33
ENDBRANCH  30  31
ENDBRANCH   1  30
TORSDOF 17
