REMARK VINA RESULT:    -4.083      9.274     14.749
REMARK INTER + INTRA:         -11.480
REMARK INTER:                  -8.647
REMARK INTRA:                  -2.832
REMARK UNBOUND:                -3.458
REMARK  Name = lig_assembled_43.pdb
REMARK  20 active torsions:
REMARK  status: ('A' for Active; 'I' for Inactive)
REMARK    1  A    between atoms: _2  and  _9
REMARK    2  A    between atoms: _4  and  _18
REMARK    3  A    between atoms: _6  and  _7
REMARK    4  A    between atoms: _6  and  _18
REMARK    5  A    between atoms: _9  and  _10
REMARK    6  A    between atoms: _10  and  _11
REMARK    7  A    between atoms: _11  and  _12
REMARK    8  A    between atoms: _12  and  _13
REMARK    9  A    between atoms: _14  and  _34
REMARK   10  A    between atoms: _16  and  _22
REMARK   11  A    between atoms: _17  and  _21
REMARK   12  A    between atoms: _21  and  _22
REMARK   13  A    between atoms: _24  and  _25
REMARK   14  A    between atoms: _26  and  _27
REMARK   15  A    between atoms: _28  and  _30
REMARK   16  A    between atoms: _30  and  _31
REMARK   17  A    between atoms: _30  and  _32
REMARK   18  A    between atoms: _32  and  _33
REMARK   19  A    between atoms: _32  and  _34
REMARK   20  A    between atoms: _35  and  _37
REMARK                            x       y       z     vdW  Elec       q    Type
REMARK                         _______ _______ _______ _____ _____    ______ ____
ROOT
ATOM      1  C   UNL     1      -2.002   8.450  13.642  0.00  0.00    +0.163 C 
ENDROOT
BRANCH   1   2
ATOM      2  O   UNL     1      -2.217   8.150  12.253  0.00  0.00    -0.388 OA
ATOM      3  H   UNL     1      -2.668   7.306  12.174  0.00  0.00    +0.210 HD
ENDBRANCH   1   2
BRANCH   1   4
ATOM      4  C   UNL     1      -3.065   9.432  14.164  0.00  0.00    +0.175 C 
BRANCH   4   5
ATOM      5  C   UNL     1      -3.438  10.491  13.115  0.00  0.00    +0.176 C 
ATOM      6  O   UNL     1      -2.206  10.990  12.526  0.00  0.00    -0.332 OA
ATOM      7  C   UNL     1      -2.371  11.940  11.422  0.00  0.00    +0.277 C 
ATOM      8  C   UNL     1      -3.262  13.129  11.859  0.00  0.00    +0.110 C 
ATOM      9  C   UNL     1      -4.570  12.647  12.521  0.00  0.00    +0.143 C 
ATOM     10  C   UNL     1      -4.282  11.661  13.653  0.00  0.00    +0.133 C 
BRANCH  10  11
ATOM     11  N   UNL     1      -5.538  11.143  14.218  0.00  0.00    -0.308 N 
ATOM     12  H   UNL     1      -6.147  10.617  13.608  0.00  0.00    +0.149 HD
ATOM     13  C   UNL     1      -5.925  11.322  15.484  0.00  0.00    +0.210 C 
ATOM     14  C   UNL     1      -4.986  12.150  16.381  0.00  0.00    +0.109 C 
ATOM     15  O   UNL     1      -6.976  10.864  15.933  0.00  0.00    -0.276 OA
ENDBRANCH  10  11
BRANCH   7  16
ATOM     16  C   UNL     1      -3.000  11.249  10.195  0.00  0.00    +0.414 C 
ATOM     17  O   UNL     1      -3.000  10.021  10.107  0.00  0.00    -0.240 OA
ATOM     18  O   UNL     1      -3.508  11.917   9.294  0.00  0.00    -0.240 OA
ENDBRANCH   7  16
BRANCH   9  19
ATOM     19  O   UNL     1      -5.287  13.767  13.042  0.00  0.00    -0.390 OA
ATOM     20  H   UNL     1      -5.917  14.077  12.388  0.00  0.00    +0.210 HD
ENDBRANCH   9  19
BRANCH   7  21
ATOM     21  O   UNL     1      -1.060  12.455  11.074  0.00  0.00    -0.343 OA
ATOM     22  C   UNL     1      -0.855  13.860  11.370  0.00  0.00    +0.198 C 
ENDBRANCH   7  21
ENDBRANCH   4   5
BRANCH   4  23
ATOM     23  O   UNL     1      -2.601  10.070  15.371  0.00  0.00    -0.387 OA
ATOM     24  H   UNL     1      -1.738  10.461  15.215  0.00  0.00    +0.210 HD
ENDBRANCH   4  23
ENDBRANCH   1   4
BRANCH   1  25
ATOM     25  C   UNL     1      -2.046   7.167  14.466  0.00  0.00    +0.141 C 
BRANCH  25  28
ATOM     26  C   UNL     1      -3.335   6.542  16.479  0.00  0.00    +0.401 C 
ATOM     27  O   UNL     1      -2.359   6.081  17.076  0.00  0.00    -0.226 OA
ATOM     28  N   UNL     1      -3.281   7.064  15.253  0.00  0.00    -0.279 N 
ATOM     29  H   UNL     1      -4.137   7.408  14.843  0.00  0.00    +0.152 HD
BRANCH  26  30
ATOM     30  O   UNL     1      -4.614   6.522  17.119  0.00  0.00    -0.444 OA
BRANCH  30  31
ATOM     31  C   UNL     1      -5.293   7.754  16.867  0.00  0.00    +0.292 C 
BRANCH  31  33
ATOM     32  N   UNL     1      -6.571   8.001  18.973  0.00  0.00    -0.131 NA
ATOM     33  C   UNL     1      -5.584   8.449  18.134  0.00  0.00    +0.120 A 
ATOM     34  C   UNL     1      -5.000   9.568  18.684  0.00  0.00    +0.137 A 
ATOM     35  N   UNL     1      -5.680   9.751  19.850  0.00  0.00    -0.251 N 
ATOM     36  N   UNL     1      -6.621   8.810  20.023  0.00  0.00    -0.065 NA
BRANCH  35  37
ATOM     37  C   UNL     1      -5.513  10.809  20.824  0.00  0.00    +0.145 C 
BRANCH  37  38
ATOM     38  C   UNL     1      -4.484  11.837  20.363  0.00  0.00    +0.024 C 
BRANCH  38  39
ATOM     39  C   UNL     1      -3.428  12.114  21.434  0.00  0.00    +0.006 C 
BRANCH  39  40
ATOM     40  C   UNL     1      -3.593  11.153  22.613  0.00  0.00    +0.026 C 
BRANCH  40  41
ATOM     41  C   UNL     1      -3.793  11.881  23.909  0.00  0.00    -0.034 C 
ATOM     42  C   UNL     1      -3.000  12.871  24.338  0.00  0.00    +0.004 C 
ENDBRANCH  40  41
ENDBRANCH  39  40
ENDBRANCH  38  39
ENDBRANCH  37  38
ENDBRANCH  35  37
ENDBRANCH  31  33
ENDBRANCH  30  31
ENDBRANCH  26  30
ENDBRANCH  25  28
ENDBRANCH   1  25
TORSDOF 18
