REMARK VINA RESULT:    -5.549      4.534      6.409
REMARK INTER + INTRA:         -12.045
REMARK INTER:                  -9.932
REMARK INTRA:                  -2.113
REMARK UNBOUND:                -1.954
REMARK  Name = lig_assembled_60.pdb
REMARK  18 active torsions:
REMARK  status: ('A' for Active; 'I' for Inactive)
REMARK    1  A    between atoms: _2  and  _10
REMARK    2  A    between atoms: _3  and  _41
REMARK    3  A    between atoms: _5  and  _21
REMARK    4  A    between atoms: _7  and  _8
REMARK    5  A    between atoms: _7  and  _21
REMARK    6  A    between atoms: _13  and  _41
REMARK    7  A    between atoms: _17  and  _37
REMARK    8  A    between atoms: _19  and  _25
REMARK    9  A    between atoms: _20  and  _24
REMARK   10  A    between atoms: _24  and  _25
REMARK   11  A    between atoms: _27  and  _28
REMARK   12  A    between atoms: _29  and  _30
REMARK   13  A    between atoms: _31  and  _33
REMARK   14  A    between atoms: _33  and  _34
REMARK   15  A    between atoms: _33  and  _35
REMARK   16  A    between atoms: _35  and  _36
REMARK   17  A    between atoms: _35  and  _37
REMARK   18  A    between atoms: _38  and  _40
REMARK                            x       y       z     vdW  Elec       q    Type
REMARK                         _______ _______ _______ _____ _____    ______ ____
ROOT
ATOM      1  C   UNL     1      -5.615  11.206  18.547  0.00  0.00    +0.141 C 
ENDROOT
BRANCH   1   4
ATOM      2  C   UNL     1      -4.206  10.726  20.519  0.00  0.00    +0.401 C 
ATOM      3  O   UNL     1      -4.769   9.661  20.780  0.00  0.00    -0.226 OA
ATOM      4  N   UNL     1      -4.540  11.516  19.498  0.00  0.00    -0.279 N 
ATOM      5  H   UNL     1      -4.025  12.376  19.371  0.00  0.00    +0.152 HD
BRANCH   2   6
ATOM      6  O   UNL     1      -3.129  11.164  21.351  0.00  0.00    -0.444 OA
BRANCH   6   7
ATOM      7  C   UNL     1      -3.636  12.017  22.381  0.00  0.00    +0.292 C 
BRANCH   7   9
ATOM      8  N   UNL     1      -3.144  10.056  23.810  0.00  0.00    -0.131 NA
ATOM      9  C   UNL     1      -3.494  11.371  23.699  0.00  0.00    +0.121 A 
ATOM     10  C   UNL     1      -3.653  11.901  24.958  0.00  0.00    +0.143 A 
ATOM     11  N   UNL     1      -3.350  10.871  25.819  0.00  0.00    -0.220 N 
ATOM     12  N   UNL     1      -3.068   9.757  25.100  0.00  0.00    -0.060 NA
BRANCH  11  13
ATOM     13  C   UNL     1      -3.275  10.894  27.236  0.00  0.00    +0.067 A 
ATOM     14  C   UNL     1      -2.912   9.742  27.952  0.00  0.00    +0.030 A 
ATOM     15  C   UNL     1      -2.909   9.757  29.348  0.00  0.00    +0.030 A 
ATOM     16  C   UNL     1      -3.254  10.926  30.031  0.00  0.00    +0.105 A 
ATOM     17  C   UNL     1      -3.601  12.084  29.329  0.00  0.00    +0.030 A 
ATOM     18  C   UNL     1      -3.605  12.069  27.931  0.00  0.00    +0.030 A 
BRANCH  16  19
ATOM     19  S   UNL     1      -3.322  10.908  31.798  0.00  0.00    +0.056 S 
ATOM     20  O   UNL     1      -4.424  11.730  32.241  0.00  0.00    -0.153 OA
ATOM     21  O   UNL     1      -3.126   9.555  32.264  0.00  0.00    -0.153 OA
BRANCH  19  22
ATOM     22  N   UNL     1      -1.926  11.745  32.201  0.00  0.00    -0.204 NA
ATOM     23  H   UNL     1      -2.077  12.276  33.059  0.00  0.00    +0.144 HD
ATOM     24  H   UNL     1      -1.626  12.315  31.410  0.00  0.00    +0.144 HD
ENDBRANCH  19  22
ENDBRANCH  16  19
ENDBRANCH  11  13
ENDBRANCH   7   9
ENDBRANCH   6   7
ENDBRANCH   2   6
ENDBRANCH   1   4
BRANCH   1  25
ATOM     25  C   UNL     1      -5.085  11.024  17.129  0.00  0.00    +0.163 C 
BRANCH  25  26
ATOM     26  O   UNL     1      -4.346  12.189  16.726  0.00  0.00    -0.388 OA
ATOM     27  H   UNL     1      -3.416  12.066  16.931  0.00  0.00    +0.210 HD
ENDBRANCH  25  26
BRANCH  25  28
ATOM     28  C   UNL     1      -4.202   9.765  17.068  0.00  0.00    +0.175 C 
BRANCH  28  29
ATOM     29  C   UNL     1      -4.022   9.254  15.631  0.00  0.00    +0.176 C 
ATOM     30  O   UNL     1      -3.102  10.150  14.950  0.00  0.00    -0.332 OA
ATOM     31  C   UNL     1      -2.726   9.757  13.588  0.00  0.00    +0.277 C 
ATOM     32  C   UNL     1      -3.989   9.543  12.718  0.00  0.00    +0.110 C 
ATOM     33  C   UNL     1      -5.012   8.622  13.416  0.00  0.00    +0.143 C 
ATOM     34  C   UNL     1      -5.328   9.123  14.826  0.00  0.00    +0.133 C 
BRANCH  34  35
ATOM     35  N   UNL     1      -6.237   8.190  15.512  0.00  0.00    -0.308 N 
ATOM     36  H   UNL     1      -5.876   7.281  15.766  0.00  0.00    +0.149 HD
ATOM     37  C   UNL     1      -7.506   8.466  15.822  0.00  0.00    +0.210 C 
ATOM     38  C   UNL     1      -8.034   9.850  15.399  0.00  0.00    +0.109 C 
ATOM     39  O   UNL     1      -8.240   7.671  16.410  0.00  0.00    -0.276 OA
ENDBRANCH  34  35
BRANCH  31  40
ATOM     40  C   UNL     1      -1.887   8.462  13.604  0.00  0.00    +0.414 C 
ATOM     41  O   UNL     1      -1.693   7.835  12.563  0.00  0.00    -0.240 OA
ATOM     42  O   UNL     1      -1.404   8.045  14.658  0.00  0.00    -0.240 OA
ENDBRANCH  31  40
BRANCH  33  43
ATOM     43  O   UNL     1      -6.218   8.575  12.652  0.00  0.00    -0.390 OA
ATOM     44  H   UNL     1      -6.930   8.235  13.198  0.00  0.00    +0.210 HD
ENDBRANCH  33  43
BRANCH  31  45
ATOM     45  O   UNL     1      -1.948  10.835  13.008  0.00  0.00    -0.343 OA
ATOM     46  C   UNL     1      -2.675  11.688  12.087  0.00  0.00    +0.198 C 
ENDBRANCH  31  45
ENDBRANCH  28  29
BRANCH  28  47
ATOM     47  O   UNL     1      -4.759   8.727  17.899  0.00  0.00    -0.387 OA
ATOM     48  H   UNL     1      -4.959   7.958  17.360  0.00  0.00    +0.210 HD
ENDBRANCH  28  47
ENDBRANCH  25  28
ENDBRANCH   1  25
TORSDOF 16
