REMARK VINA RESULT:    -4.634      3.311     10.801
REMARK INTER + INTRA:         -11.378
REMARK INTER:                  -8.178
REMARK INTRA:                  -3.200
REMARK UNBOUND:                -3.358
REMARK  Name = lig_assembled_42.pdb
REMARK  16 active torsions:
REMARK  status: ('A' for Active; 'I' for Inactive)
REMARK    1  A    between atoms: _2  and  _9
REMARK    2  A    between atoms: _4  and  _21
REMARK    3  A    between atoms: _6  and  _7
REMARK    4  A    between atoms: _6  and  _21
REMARK    5  A    between atoms: _17  and  _37
REMARK    6  A    between atoms: _19  and  _25
REMARK    7  A    between atoms: _20  and  _24
REMARK    8  A    between atoms: _24  and  _25
REMARK    9  A    between atoms: _27  and  _28
REMARK   10  A    between atoms: _29  and  _30
REMARK   11  A    between atoms: _31  and  _33
REMARK   12  A    between atoms: _33  and  _34
REMARK   13  A    between atoms: _33  and  _35
REMARK   14  A    between atoms: _35  and  _36
REMARK   15  A    between atoms: _35  and  _37
REMARK   16  A    between atoms: _38  and  _40
REMARK                            x       y       z     vdW  Elec       q    Type
REMARK                         _______ _______ _______ _____ _____    ______ ____
ROOT
ATOM      1  C   UNL     1      -2.843  11.741  24.810  0.00  0.00    +0.163 C 
ENDROOT
BRANCH   1   2
ATOM      2  O   UNL     1      -3.156  11.662  26.210  0.00  0.00    -0.388 OA
ATOM      3  H   UNL     1      -2.909  10.797  26.545  0.00  0.00    +0.210 HD
ENDBRANCH   1   2
BRANCH   1   4
ATOM      4  C   UNL     1      -2.875  13.195  24.349  0.00  0.00    +0.141 C 
BRANCH   4   7
ATOM      5  C   UNL     1      -3.843  14.369  22.402  0.00  0.00    +0.401 C 
ATOM      6  O   UNL     1      -2.896  15.150  22.284  0.00  0.00    -0.226 OA
ATOM      7  N   UNL     1      -3.919  13.428  23.344  0.00  0.00    -0.279 N 
ATOM      8  H   UNL     1      -4.742  12.841  23.366  0.00  0.00    +0.152 HD
BRANCH   5   9
ATOM      9  O   UNL     1      -4.940  14.464  21.490  0.00  0.00    -0.444 OA
BRANCH   9  10
ATOM     10  C   UNL     1      -5.744  13.284  21.585  0.00  0.00    +0.292 C 
BRANCH  10  12
ATOM     11  N   UNL     1      -6.901  12.570  19.510  0.00  0.00    -0.131 NA
ATOM     12  C   UNL     1      -5.782  12.578  20.291  0.00  0.00    +0.121 A 
ATOM     13  C   UNL     1      -4.796  11.851  19.667  0.00  0.00    +0.143 A 
ATOM     14  N   UNL     1      -5.360  11.413  18.493  0.00  0.00    -0.220 N 
ATOM     15  N   UNL     1      -6.639  11.861  18.418  0.00  0.00    -0.060 NA
BRANCH  14  16
ATOM     16  C   UNL     1      -4.771  10.617  17.479  0.00  0.00    +0.071 A 
ATOM     17  C   UNL     1      -4.048  11.225  16.441  0.00  0.00    +0.077 A 
ATOM     18  C   UNL     1      -3.493  10.408  15.480  0.00  0.00    +0.168 A 
ATOM     19  O   UNL     1      -2.763  10.836  14.416  0.00  0.00    -0.453 OA
ATOM     20  C   UNL     1      -2.450   9.579  13.782  0.00  0.00    +0.466 C 
ATOM     21  O   UNL     1      -3.003   8.436  14.471  0.00  0.00    -0.453 OA
ATOM     22  C   UNL     1      -3.630   9.042  15.514  0.00  0.00    +0.166 A 
ATOM     23  C   UNL     1      -4.335   8.411  16.516  0.00  0.00    +0.051 A 
ATOM     24  C   UNL     1      -4.913   9.209  17.513  0.00  0.00    +0.031 A 
ENDBRANCH  14  16
ENDBRANCH  10  12
ENDBRANCH   9  10
ENDBRANCH   5   9
ENDBRANCH   4   7
ENDBRANCH   1   4
BRANCH   1  25
ATOM     25  C   UNL     1      -3.839  10.916  23.977  0.00  0.00    +0.175 C 
BRANCH  25  26
ATOM     26  C   UNL     1      -4.244   9.614  24.683  0.00  0.00    +0.176 C 
ATOM     27  O   UNL     1      -3.042   9.013  25.237  0.00  0.00    -0.332 OA
ATOM     28  C   UNL     1      -3.250   7.807  26.045  0.00  0.00    +0.277 C 
ATOM     29  C   UNL     1      -4.042   6.748  25.240  0.00  0.00    +0.110 C 
ATOM     30  C   UNL     1      -5.314   7.348  24.605  0.00  0.00    +0.143 C 
ATOM     31  C   UNL     1      -4.982   8.599  23.791  0.00  0.00    +0.133 C 
BRANCH  31  32
ATOM     32  N   UNL     1      -6.212   9.212  23.263  0.00  0.00    -0.308 N 
ATOM     33  H   UNL     1      -6.843   9.645  23.922  0.00  0.00    +0.149 HD
ATOM     34  C   UNL     1      -6.547   9.232  21.970  0.00  0.00    +0.210 C 
ATOM     35  C   UNL     1      -5.576   8.541  20.995  0.00  0.00    +0.109 C 
ATOM     36  O   UNL     1      -7.577   9.766  21.555  0.00  0.00    -0.276 OA
ENDBRANCH  31  32
BRANCH  28  37
ATOM     37  C   UNL     1      -4.012   8.144  27.344  0.00  0.00    +0.414 C 
ATOM     38  O   UNL     1      -3.880   9.247  27.872  0.00  0.00    -0.240 OA
ATOM     39  O   UNL     1      -4.757   7.312  27.864  0.00  0.00    -0.240 OA
ENDBRANCH  28  37
BRANCH  30  40
ATOM     40  O   UNL     1      -5.930   6.382  23.753  0.00  0.00    -0.390 OA
ATOM     41  H   UNL     1      -6.807   6.175  24.084  0.00  0.00    +0.210 HD
ENDBRANCH  30  40
BRANCH  28  42
ATOM     42  O   UNL     1      -1.949   7.255  26.371  0.00  0.00    -0.343 OA
ATOM     43  C   UNL     1      -1.898   5.808  26.441  0.00  0.00    +0.198 C 
ENDBRANCH  28  42
ENDBRANCH  25  26
BRANCH  25  44
ATOM     44  O   UNL     1      -3.280  10.624  22.680  0.00  0.00    -0.387 OA
ATOM     45  H   UNL     1      -2.360  10.364  22.779  0.00  0.00    +0.210 HD
ENDBRANCH  25  44
ENDBRANCH   1  25
TORSDOF 14
