REMARK VINA RESULT:    -3.418      3.709      9.420
REMARK INTER + INTRA:         -11.226
REMARK INTER:                  -8.041
REMARK INTRA:                  -3.184
REMARK UNBOUND:                -4.711
REMARK  Name = lig_assembled_62.pdb
REMARK  20 active torsions:
REMARK  status: ('A' for Active; 'I' for Inactive)
REMARK    1  A    between atoms: _2  and  _10
REMARK    2  A    between atoms: _5  and  _19
REMARK    3  A    between atoms: _6  and  _10
REMARK    4  A    between atoms: _7  and  _8
REMARK    5  A    between atoms: _7  and  _19
REMARK    6  A    between atoms: _10  and  _11
REMARK    7  A    between atoms: _11  and  _14
REMARK    8  A    between atoms: _12  and  _14
REMARK    9  A    between atoms: _15  and  _35
REMARK   10  A    between atoms: _17  and  _23
REMARK   11  A    between atoms: _18  and  _22
REMARK   12  A    between atoms: _22  and  _23
REMARK   13  A    between atoms: _25  and  _26
REMARK   14  A    between atoms: _27  and  _28
REMARK   15  A    between atoms: _29  and  _31
REMARK   16  A    between atoms: _31  and  _32
REMARK   17  A    between atoms: _31  and  _33
REMARK   18  A    between atoms: _33  and  _34
REMARK   19  A    between atoms: _33  and  _35
REMARK   20  A    between atoms: _36  and  _38
REMARK                            x       y       z     vdW  Elec       q    Type
REMARK                         _______ _______ _______ _____ _____    ______ ____
ROOT
ATOM      1  C   UNL     1      -4.920   7.290  23.697  0.00  0.00    +0.163 C 
ENDROOT
BRANCH   1   2
ATOM      2  O   UNL     1      -3.606   6.911  24.139  0.00  0.00    -0.388 OA
ATOM      3  H   UNL     1      -3.668   6.478  24.994  0.00  0.00    +0.210 HD
ENDBRANCH   1   2
BRANCH   1   4
ATOM      4  C   UNL     1      -4.976   8.791  23.363  0.00  0.00    +0.175 C 
BRANCH   4   5
ATOM      5  C   UNL     1      -3.930   9.597  24.148  0.00  0.00    +0.176 C 
ATOM      6  O   UNL     1      -4.292   9.548  25.555  0.00  0.00    -0.332 OA
ATOM      7  C   UNL     1      -3.343  10.180  26.477  0.00  0.00    +0.277 C 
ATOM      8  C   UNL     1      -3.074  11.645  26.056  0.00  0.00    +0.110 C 
ATOM      9  C   UNL     1      -2.716  11.752  24.559  0.00  0.00    +0.143 C 
ATOM     10  C   UNL     1      -3.769  11.059  23.692  0.00  0.00    +0.133 C 
BRANCH  10  11
ATOM     11  N   UNL     1      -3.372  11.092  22.276  0.00  0.00    -0.308 N 
ATOM     12  H   UNL     1      -2.481  10.686  22.026  0.00  0.00    +0.149 HD
ATOM     13  C   UNL     1      -4.113  11.622  21.299  0.00  0.00    +0.210 C 
ATOM     14  C   UNL     1      -5.454  12.255  21.716  0.00  0.00    +0.109 C 
ATOM     15  O   UNL     1      -3.762  11.622  20.118  0.00  0.00    -0.276 OA
ENDBRANCH  10  11
BRANCH   7  16
ATOM     16  C   UNL     1      -2.011   9.401  26.509  0.00  0.00    +0.414 C 
ATOM     17  O   UNL     1      -2.007   8.175  26.398  0.00  0.00    -0.240 OA
ATOM     18  O   UNL     1      -0.942   9.997  26.646  0.00  0.00    -0.240 OA
ENDBRANCH   7  16
BRANCH   7  19
ATOM     19  O   UNL     1      -3.937  10.185  27.800  0.00  0.00    -0.343 OA
ATOM     20  C   UNL     1      -3.519  11.280  28.654  0.00  0.00    +0.198 C 
ENDBRANCH   7  19
BRANCH   9  21
ATOM     21  O   UNL     1      -2.626  13.126  24.181  0.00  0.00    -0.390 OA
ATOM     22  H   UNL     1      -2.785  13.211  23.238  0.00  0.00    +0.210 HD
ENDBRANCH   9  21
ENDBRANCH   4   5
BRANCH   4  23
ATOM     23  O   UNL     1      -6.296   9.308  23.619  0.00  0.00    -0.387 OA
ATOM     24  H   UNL     1      -6.805   8.659  24.111  0.00  0.00    +0.210 HD
ENDBRANCH   4  23
ENDBRANCH   1   4
BRANCH   1  25
ATOM     25  C   UNL     1      -5.312   6.479  22.466  0.00  0.00    +0.141 C 
BRANCH  25  28
ATOM     26  C   UNL     1      -7.077   7.111  20.857  0.00  0.00    +0.401 C 
ATOM     27  O   UNL     1      -7.820   6.175  21.161  0.00  0.00    -0.226 OA
ATOM     28  N   UNL     1      -5.884   7.326  21.412  0.00  0.00    -0.279 N 
ATOM     29  H   UNL     1      -5.343   8.116  21.090  0.00  0.00    +0.152 HD
BRANCH  26  30
ATOM     30  O   UNL     1      -7.498   8.033  19.848  0.00  0.00    -0.444 OA
BRANCH  30  31
ATOM     31  C   UNL     1      -6.604   9.148  19.816  0.00  0.00    +0.292 C 
BRANCH  31  33
ATOM     32  N   UNL     1      -4.958   8.122  18.277  0.00  0.00    -0.131 NA
ATOM     33  C   UNL     1      -5.822   9.144  18.566  0.00  0.00    +0.120 A 
ATOM     34  C   UNL     1      -5.796  10.058  17.536  0.00  0.00    +0.138 A 
ATOM     35  N   UNL     1      -4.886   9.546  16.658  0.00  0.00    -0.237 N 
ATOM     36  N   UNL     1      -4.390   8.376  17.105  0.00  0.00    -0.065 NA
BRANCH  35  37
ATOM     37  C   UNL     1      -4.449  10.061  15.371  0.00  0.00    +0.219 C 
BRANCH  37  38
ATOM     38  C   UNL     1      -4.702   9.036  14.278  0.00  0.00    +0.237 C 
ATOM     39  O   UNL     1      -5.737   8.968  13.620  0.00  0.00    -0.274 OA
ATOM     40  N   UNL     1      -3.664   8.190  13.995  0.00  0.00    -0.328 N 
ATOM     41  H   UNL     1      -2.754   8.250  14.433  0.00  0.00    +0.145 HD
ATOM     42  H   UNL     1      -3.802   7.503  13.264  0.00  0.00    +0.145 HD
ENDBRANCH  37  38
BRANCH  37  43
ATOM     43  C   UNL     1      -2.975  10.456  15.420  0.00  0.00    +0.195 C 
BRANCH  43  44
ATOM     44  O   UNL     1      -2.632  11.161  14.218  0.00  0.00    -0.380 OA
ATOM     45  C   UNL     1      -3.287  12.421  14.142  0.00  0.00    +0.194 C 
ENDBRANCH  43  44
ENDBRANCH  37  43
ENDBRANCH  35  37
ENDBRANCH  31  33
ENDBRANCH  30  31
ENDBRANCH  26  30
ENDBRANCH  25  28
ENDBRANCH   1  25
TORSDOF 17
