REMARK VINA RESULT:    -4.865      3.206      8.328
REMARK INTER + INTRA:         -11.409
REMARK INTER:                  -8.892
REMARK INTRA:                  -2.517
REMARK UNBOUND:                -2.989
REMARK  Name = lig_assembled_51.pdb
REMARK  16 active torsions:
REMARK  status: ('A' for Active; 'I' for Inactive)
REMARK    1  A    between atoms: _2  and  _9
REMARK    2  A    between atoms: _4  and  _22
REMARK    3  A    between atoms: _6  and  _7
REMARK    4  A    between atoms: _6  and  _22
REMARK    5  A    between atoms: _18  and  _38
REMARK    6  A    between atoms: _20  and  _26
REMARK    7  A    between atoms: _21  and  _25
REMARK    8  A    between atoms: _25  and  _26
REMARK    9  A    between atoms: _28  and  _29
REMARK   10  A    between atoms: _30  and  _31
REMARK   11  A    between atoms: _32  and  _34
REMARK   12  A    between atoms: _34  and  _35
REMARK   13  A    between atoms: _34  and  _36
REMARK   14  A    between atoms: _36  and  _37
REMARK   15  A    between atoms: _36  and  _38
REMARK   16  A    between atoms: _39  and  _41
REMARK                            x       y       z     vdW  Elec       q    Type
REMARK                         _______ _______ _______ _____ _____    ______ ____
ROOT
ATOM      1  C   UNL     1      -6.337  11.314  29.677  0.00  0.00    +0.163 C 
ENDROOT
BRANCH   1   2
ATOM      2  O   UNL     1      -6.973  12.253  28.794  0.00  0.00    -0.388 OA
ATOM      3  H   UNL     1      -7.563  12.819  29.298  0.00  0.00    +0.210 HD
ENDBRANCH   1   2
BRANCH   1   4
ATOM      4  C   UNL     1      -6.850   9.905  29.396  0.00  0.00    +0.141 C 
BRANCH   4   7
ATOM      5  C   UNL     1      -5.453   8.220  28.249  0.00  0.00    +0.401 C 
ATOM      6  O   UNL     1      -5.197   7.593  29.280  0.00  0.00    -0.226 OA
ATOM      7  N   UNL     1      -6.212   9.316  28.213  0.00  0.00    -0.279 N 
ATOM      8  H   UNL     1      -6.356   9.767  27.320  0.00  0.00    +0.152 HD
BRANCH   5   9
ATOM      9  O   UNL     1      -4.910   7.766  27.007  0.00  0.00    -0.444 OA
BRANCH   9  10
ATOM     10  C   UNL     1      -3.518   8.090  26.947  0.00  0.00    +0.292 C 
BRANCH  10  12
ATOM     11  N   UNL     1      -2.103   9.897  26.019  0.00  0.00    -0.131 NA
ATOM     12  C   UNL     1      -3.294   9.227  26.034  0.00  0.00    +0.120 A 
ATOM     13  C   UNL     1      -4.140   9.794  25.108  0.00  0.00    +0.137 A 
ATOM     14  N   UNL     1      -3.408  10.813  24.562  0.00  0.00    -0.245 N 
ATOM     15  N   UNL     1      -2.183  10.864  25.116  0.00  0.00    -0.065 NA
BRANCH  14  16
ATOM     16  C   UNL     1      -3.826  11.761  23.527  0.00  0.00    +0.066 C 
ATOM     17  C   UNL     1      -3.381  13.200  23.912  0.00  0.00    +0.034 C 
ATOM     18  C   UNL     1      -3.770  14.206  22.814  0.00  0.00    -0.008 C 
ATOM     19  C   UNL     1      -3.098  13.798  21.493  0.00  0.00    +0.007 C 
ATOM     20  C   UNL     1      -3.563  12.394  21.074  0.00  0.00    -0.008 C 
ATOM     21  C   UNL     1      -5.090  12.394  20.903  0.00  0.00    +0.007 C 
ATOM     22  C   UNL     1      -5.765  12.791  22.225  0.00  0.00    -0.008 C 
ATOM     23  C   UNL     1      -5.295  14.196  22.633  0.00  0.00    +0.007 C 
ATOM     24  C   UNL     1      -3.174  11.384  22.167  0.00  0.00    +0.034 C 
ATOM     25  C   UNL     1      -5.370  11.785  23.320  0.00  0.00    +0.034 C 
ENDBRANCH  14  16
ENDBRANCH  10  12
ENDBRANCH   9  10
ENDBRANCH   5   9
ENDBRANCH   4   7
ENDBRANCH   1   4
BRANCH   1  26
ATOM     26  C   UNL     1      -6.605  11.675  31.148  0.00  0.00    +0.175 C 
BRANCH  26  27
ATOM     27  C   UNL     1      -5.570  12.668  31.697  0.00  0.00    +0.176 C 
ATOM     28  O   UNL     1      -5.807  13.956  31.066  0.00  0.00    -0.332 OA
ATOM     29  C   UNL     1      -4.975  15.062  31.549  0.00  0.00    +0.277 C 
ATOM     30  C   UNL     1      -3.474  14.696  31.443  0.00  0.00    +0.110 C 
ATOM     31  C   UNL     1      -3.178  13.319  32.073  0.00  0.00    +0.143 C 
ATOM     32  C   UNL     1      -4.102  12.244  31.501  0.00  0.00    +0.133 C 
BRANCH  32  33
ATOM     33  N   UNL     1      -3.870  10.955  32.171  0.00  0.00    -0.308 N 
ATOM     34  H   UNL     1      -4.140  10.872  33.141  0.00  0.00    +0.149 HD
ATOM     35  C   UNL     1      -3.326   9.887  31.581  0.00  0.00    +0.210 C 
ATOM     36  C   UNL     1      -2.901  10.053  30.110  0.00  0.00    +0.109 C 
ATOM     37  O   UNL     1      -3.156   8.815  32.163  0.00  0.00    -0.276 OA
ENDBRANCH  32  33
BRANCH  29  38
ATOM     38  C   UNL     1      -5.320  15.407  33.013  0.00  0.00    +0.414 C 
ATOM     39  O   UNL     1      -6.456  15.215  33.444  0.00  0.00    -0.240 OA
ATOM     40  O   UNL     1      -4.462  15.876  33.762  0.00  0.00    -0.240 OA
ENDBRANCH  29  38
BRANCH  31  41
ATOM     41  O   UNL     1      -1.820  12.956  31.820  0.00  0.00    -0.390 OA
ATOM     42  H   UNL     1      -1.787  12.061  31.472  0.00  0.00    +0.210 HD
ENDBRANCH  31  41
BRANCH  29  43
ATOM     43  O   UNL     1      -5.226  16.215  30.704  0.00  0.00    -0.343 OA
ATOM     44  C   UNL     1      -6.051  15.953  29.541  0.00  0.00    +0.198 C 
ENDBRANCH  29  43
ENDBRANCH  26  27
BRANCH  26  45
ATOM     45  O   UNL     1      -6.625  10.481  31.956  0.00  0.00    -0.387 OA
ATOM     46  H   UNL     1      -5.729  10.252  32.212  0.00  0.00    +0.210 HD
ENDBRANCH  26  45
ENDBRANCH   1  26
TORSDOF 14
