REMARK VINA RESULT:    -5.130      3.086      4.461
REMARK INTER + INTRA:         -12.456
REMARK INTER:                 -10.545
REMARK INTRA:                  -1.911
REMARK UNBOUND:                -2.678
REMARK  Name = lig_assembled_26.pdb
REMARK  20 active torsions:
REMARK  status: ('A' for Active; 'I' for Inactive)
REMARK    1  A    between atoms: _2  and  _9
REMARK    2  A    between atoms: _4  and  _23
REMARK    3  A    between atoms: _6  and  _7
REMARK    4  A    between atoms: _6  and  _23
REMARK    5  A    between atoms: _9  and  _10
REMARK    6  A    between atoms: _9  and  _11
REMARK    7  A    between atoms: _11  and  _12
REMARK    8  A    between atoms: _12  and  _13
REMARK    9  A    between atoms: _19  and  _39
REMARK   10  A    between atoms: _21  and  _27
REMARK   11  A    between atoms: _22  and  _26
REMARK   12  A    between atoms: _26  and  _27
REMARK   13  A    between atoms: _29  and  _30
REMARK   14  A    between atoms: _31  and  _32
REMARK   15  A    between atoms: _33  and  _35
REMARK   16  A    between atoms: _35  and  _36
REMARK   17  A    between atoms: _35  and  _37
REMARK   18  A    between atoms: _37  and  _38
REMARK   19  A    between atoms: _37  and  _39
REMARK   20  A    between atoms: _40  and  _42
REMARK                            x       y       z     vdW  Elec       q    Type
REMARK                         _______ _______ _______ _____ _____    ______ ____
ROOT
ATOM      1  C   UNL     1      -6.170   9.517  22.012  0.00  0.00    +0.163 C 
ENDROOT
BRANCH   1   2
ATOM      2  O   UNL     1      -4.826   9.135  21.677  0.00  0.00    -0.388 OA
ATOM      3  H   UNL     1      -4.342   9.904  21.366  0.00  0.00    +0.210 HD
ENDBRANCH   1   2
BRANCH   1   4
ATOM      4  C   UNL     1      -6.200  10.347  23.307  0.00  0.00    +0.175 C 
BRANCH   4   5
ATOM      5  C   UNL     1      -4.838  10.359  24.017  0.00  0.00    +0.176 C 
ATOM      6  O   UNL     1      -5.072  10.151  25.437  0.00  0.00    -0.332 OA
ATOM      7  C   UNL     1      -3.870  10.027  26.266  0.00  0.00    +0.277 C 
ATOM      8  C   UNL     1      -2.943  11.250  26.062  0.00  0.00    +0.110 C 
ATOM      9  C   UNL     1      -2.690  11.530  24.566  0.00  0.00    +0.143 C 
ATOM     10  C   UNL     1      -4.008  11.638  23.798  0.00  0.00    +0.133 C 
BRANCH  10  11
ATOM     11  N   UNL     1      -3.753  11.818  22.360  0.00  0.00    -0.308 N 
ATOM     12  H   UNL     1      -3.318  11.056  21.859  0.00  0.00    +0.149 HD
ATOM     13  C   UNL     1      -4.059  12.922  21.674  0.00  0.00    +0.210 C 
ATOM     14  C   UNL     1      -4.697  14.075  22.471  0.00  0.00    +0.109 C 
ATOM     15  O   UNL     1      -3.847  13.039  20.466  0.00  0.00    -0.276 OA
ENDBRANCH  10  11
BRANCH   7  16
ATOM     16  C   UNL     1      -3.100   8.734  25.924  0.00  0.00    +0.414 C 
ATOM     17  O   UNL     1      -1.927   8.601  26.269  0.00  0.00    -0.240 OA
ATOM     18  O   UNL     1      -3.652   7.825  25.302  0.00  0.00    -0.240 OA
ENDBRANCH   7  16
BRANCH   7  19
ATOM     19  O   UNL     1      -4.285   9.994  27.656  0.00  0.00    -0.343 OA
ATOM     20  C   UNL     1      -4.419  11.293  28.286  0.00  0.00    +0.198 C 
ENDBRANCH   7  19
BRANCH   9  21
ATOM     21  O   UNL     1      -1.960  12.749  24.421  0.00  0.00    -0.390 OA
ATOM     22  H   UNL     1      -1.261  12.784  25.078  0.00  0.00    +0.210 HD
ENDBRANCH   9  21
ENDBRANCH   4   5
BRANCH   4  23
ATOM     23  O   UNL     1      -7.219   9.846  24.195  0.00  0.00    -0.387 OA
ATOM     24  H   UNL     1      -7.475  10.537  24.810  0.00  0.00    +0.210 HD
ENDBRANCH   4  23
ENDBRANCH   1   4
BRANCH   1  25
ATOM     25  C   UNL     1      -6.781  10.327  20.873  0.00  0.00    +0.141 C 
BRANCH  25  28
ATOM     26  C   UNL     1      -6.045  11.062  18.632  0.00  0.00    +0.401 C 
ATOM     27  O   UNL     1      -6.704  12.104  18.654  0.00  0.00    -0.226 OA
ATOM     28  N   UNL     1      -6.026  10.171  19.624  0.00  0.00    -0.279 N 
ATOM     29  H   UNL     1      -5.461   9.341  19.509  0.00  0.00    +0.152 HD
BRANCH  26  30
ATOM     30  O   UNL     1      -5.247  10.769  17.482  0.00  0.00    -0.444 OA
BRANCH  30  31
ATOM     31  C   UNL     1      -4.369  11.866  17.218  0.00  0.00    +0.292 C 
BRANCH  31  33
ATOM     32  N   UNL     1      -3.048  10.802  15.406  0.00  0.00    -0.131 NA
ATOM     33  C   UNL     1      -3.875  11.807  15.830  0.00  0.00    +0.120 A 
ATOM     34  C   UNL     1      -4.124  12.659  14.780  0.00  0.00    +0.137 A 
ATOM     35  N   UNL     1      -3.401  12.140  13.749  0.00  0.00    -0.248 N 
ATOM     36  N   UNL     1      -2.777  11.005  14.123  0.00  0.00    -0.065 NA
BRANCH  35  37
ATOM     37  C   UNL     1      -3.296  12.594  12.370  0.00  0.00    +0.113 C 
ATOM     38  C   UNL     1      -4.641  12.918  11.705  0.00  0.00    +0.033 C 
BRANCH  37  39
ATOM     39  C   UNL     1      -2.284  13.742  12.199  0.00  0.00    +0.106 C 
BRANCH  39  40
ATOM     40  C   UNL     1      -1.024  13.349  11.451  0.00  0.00    +0.165 C 
ATOM     41  O   UNL     1      -0.893  12.250  10.915  0.00  0.00    -0.292 OA
BRANCH  40  42
ATOM     42  C   UNL     1       0.114  14.316  11.399  0.00  0.00    +0.017 A 
ATOM     43  C   UNL     1       1.102  14.260  10.409  0.00  0.00    +0.011 A 
ATOM     44  C   UNL     1       2.121  15.216  10.383  0.00  0.00    +0.001 A 
ATOM     45  C   UNL     1       2.162  16.224  11.345  0.00  0.00    +0.000 A 
ATOM     46  C   UNL     1       1.190  16.279  12.339  0.00  0.00    +0.001 A 
ATOM     47  C   UNL     1       0.168  15.329  12.366  0.00  0.00    +0.011 A 
ENDBRANCH  40  42
ENDBRANCH  39  40
ENDBRANCH  37  39
ENDBRANCH  35  37
ENDBRANCH  31  33
ENDBRANCH  30  31
ENDBRANCH  26  30
ENDBRANCH  25  28
ENDBRANCH   1  25
TORSDOF 17
