REMARK VINA RESULT:    -4.689      6.356     10.505
REMARK INTER + INTRA:         -10.403
REMARK INTER:                  -8.134
REMARK INTRA:                  -2.269
REMARK UNBOUND:                -2.287
REMARK  Name = lig_assembled_52.pdb
REMARK  16 active torsions:
REMARK  status: ('A' for Active; 'I' for Inactive)
REMARK    1  A    between atoms: _2  and  _10
REMARK    2  A    between atoms: _5  and  _18
REMARK    3  A    between atoms: _7  and  _8
REMARK    4  A    between atoms: _7  and  _18
REMARK    5  A    between atoms: _14  and  _34
REMARK    6  A    between atoms: _16  and  _22
REMARK    7  A    between atoms: _17  and  _21
REMARK    8  A    between atoms: _21  and  _22
REMARK    9  A    between atoms: _24  and  _25
REMARK   10  A    between atoms: _26  and  _27
REMARK   11  A    between atoms: _28  and  _30
REMARK   12  A    between atoms: _30  and  _31
REMARK   13  A    between atoms: _30  and  _32
REMARK   14  A    between atoms: _32  and  _33
REMARK   15  A    between atoms: _32  and  _34
REMARK   16  A    between atoms: _35  and  _37
REMARK                            x       y       z     vdW  Elec       q    Type
REMARK                         _______ _______ _______ _____ _____    ______ ____
ROOT
ATOM      1  C   UNL     1      -5.972  10.769  16.406  0.00  0.00    +0.163 C 
ENDROOT
BRANCH   1   2
ATOM      2  O   UNL     1      -5.154  11.926  16.165  0.00  0.00    -0.388 OA
ATOM      3  H   UNL     1      -5.327  12.587  16.840  0.00  0.00    +0.210 HD
ENDBRANCH   1   2
BRANCH   1   4
ATOM      4  C   UNL     1      -6.581  10.842  17.802  0.00  0.00    +0.141 C 
BRANCH   4   7
ATOM      5  C   UNL     1      -4.756  10.883  19.468  0.00  0.00    +0.401 C 
ATOM      6  O   UNL     1      -4.493  12.075  19.290  0.00  0.00    -0.226 OA
ATOM      7  N   UNL     1      -5.712  10.224  18.811  0.00  0.00    -0.279 N 
ATOM      8  H   UNL     1      -5.845   9.245  19.020  0.00  0.00    +0.152 HD
BRANCH   5   9
ATOM      9  O   UNL     1      -4.000  10.141  20.428  0.00  0.00    -0.444 OA
BRANCH   9  10
ATOM     10  C   UNL     1      -3.332  11.046  21.312  0.00  0.00    +0.292 C 
BRANCH  10  12
ATOM     11  N   UNL     1      -3.562   9.242  22.989  0.00  0.00    -0.131 NA
ATOM     12  C   UNL     1      -3.435  10.571  22.705  0.00  0.00    +0.121 A 
ATOM     13  C   UNL     1      -3.421  11.281  23.883  0.00  0.00    +0.143 A 
ATOM     14  N   UNL     1      -3.524  10.332  24.873  0.00  0.00    -0.218 N 
ATOM     15  N   UNL     1      -3.619   9.105  24.307  0.00  0.00    -0.060 NA
BRANCH  14  16
ATOM     16  C   UNL     1      -3.520  10.512  26.273  0.00  0.00    +0.085 A 
ATOM     17  C   UNL     1      -3.662  11.774  26.857  0.00  0.00    +0.031 A 
ATOM     18  C   UNL     1      -3.629  11.889  28.245  0.00  0.00    +0.022 A 
ATOM     19  C   UNL     1      -3.459  10.740  29.000  0.00  0.00    +0.111 A 
ATOM     20  N   UNL     1      -3.327   9.507  28.465  0.00  0.00    -0.261 NA
ATOM     21  C   UNL     1      -3.360   9.416  27.113  0.00  0.00    +0.138 A 
ENDBRANCH  14  16
ENDBRANCH  10  12
ENDBRANCH   9  10
ENDBRANCH   5   9
ENDBRANCH   4   7
ENDBRANCH   1   4
BRANCH   1  22
ATOM     22  C   UNL     1      -5.149   9.476  16.271  0.00  0.00    +0.175 C 
BRANCH  22  23
ATOM     23  C   UNL     1      -4.149   9.546  15.108  0.00  0.00    +0.176 C 
ATOM     24  O   UNL     1      -4.828  10.142  13.969  0.00  0.00    -0.332 OA
ATOM     25  C   UNL     1      -3.993  10.388  12.789  0.00  0.00    +0.277 C 
ATOM     26  C   UNL     1      -3.280   9.085  12.351  0.00  0.00    +0.110 C 
ATOM     27  C   UNL     1      -2.569   8.398  13.536  0.00  0.00    +0.143 C 
ATOM     28  C   UNL     1      -3.529   8.194  14.708  0.00  0.00    +0.133 C 
BRANCH  28  29
ATOM     29  N   UNL     1      -2.819   7.619  15.861  0.00  0.00    -0.308 N 
ATOM     30  H   UNL     1      -2.105   8.181  16.304  0.00  0.00    +0.149 HD
ATOM     31  C   UNL     1      -3.056   6.403  16.361  0.00  0.00    +0.210 C 
ATOM     32  C   UNL     1      -4.132   5.562  15.648  0.00  0.00    +0.109 C 
ATOM     33  O   UNL     1      -2.456   5.953  17.338  0.00  0.00    -0.276 OA
ENDBRANCH  28  29
BRANCH  25  34
ATOM     34  C   UNL     1      -2.941  11.478  13.082  0.00  0.00    +0.414 C 
ATOM     35  O   UNL     1      -1.858  11.466  12.499  0.00  0.00    -0.240 OA
ATOM     36  O   UNL     1      -3.176  12.369  13.899  0.00  0.00    -0.240 OA
ENDBRANCH  25  34
BRANCH  27  37
ATOM     37  O   UNL     1      -2.057   7.131  13.121  0.00  0.00    -0.390 OA
ATOM     38  H   UNL     1      -2.551   6.819  12.360  0.00  0.00    +0.210 HD
ENDBRANCH  27  37
BRANCH  25  39
ATOM     39  O   UNL     1      -4.859  10.821  11.709  0.00  0.00    -0.343 OA
ATOM     40  C   UNL     1      -6.091  10.069  11.572  0.00  0.00    +0.198 C 
ENDBRANCH  25  39
ENDBRANCH  22  23
BRANCH  22  41
ATOM     41  O   UNL     1      -6.026   8.344  16.104  0.00  0.00    -0.387 OA
ATOM     42  H   UNL     1      -6.892   8.649  15.823  0.00  0.00    +0.210 HD
ENDBRANCH  22  41
ENDBRANCH   1  22
TORSDOF 14
