REMARK VINA RESULT:    -4.886      1.535      1.714
REMARK INTER + INTRA:         -13.180
REMARK INTER:                  -9.102
REMARK INTRA:                  -4.078
REMARK UNBOUND:                -3.581
REMARK  Name = lig_assembled_31.pdb
REMARK  20 active torsions:
REMARK  status: ('A' for Active; 'I' for Inactive)
REMARK    1  A    between atoms: _2  and  _11
REMARK    2  A    between atoms: _3  and  _12
REMARK    3  A    between atoms: _4  and  _14
REMARK    4  A    between atoms: _6  and  _24
REMARK    5  A    between atoms: _8  and  _9
REMARK    6  A    between atoms: _8  and  _24
REMARK    7  A    between atoms: _11  and  _12
REMARK    8  A    between atoms: _14  and  _15
REMARK    9  A    between atoms: _20  and  _40
REMARK   10  A    between atoms: _22  and  _28
REMARK   11  A    between atoms: _23  and  _27
REMARK   12  A    between atoms: _27  and  _28
REMARK   13  A    between atoms: _30  and  _31
REMARK   14  A    between atoms: _32  and  _33
REMARK   15  A    between atoms: _34  and  _36
REMARK   16  A    between atoms: _36  and  _37
REMARK   17  A    between atoms: _36  and  _38
REMARK   18  A    between atoms: _38  and  _39
REMARK   19  A    between atoms: _38  and  _40
REMARK   20  A    between atoms: _41  and  _43
REMARK                            x       y       z     vdW  Elec       q    Type
REMARK                         _______ _______ _______ _____ _____    ______ ____
ROOT
ATOM      1  C   UNL     1      -3.666   6.086  23.361  0.00  0.00    +0.401 C 
ATOM      2  O   UNL     1      -2.970   6.457  22.413  0.00  0.00    -0.226 OA
ATOM      3  N   UNL     1      -4.927   6.474  23.558  0.00  0.00    -0.279 N 
ATOM      4  H   UNL     1      -5.419   6.108  24.360  0.00  0.00    +0.152 HD
ENDROOT
BRANCH   1   5
ATOM      5  O   UNL     1      -3.110   5.180  24.318  0.00  0.00    -0.444 OA
BRANCH   5   6
ATOM      6  C   UNL     1      -3.937   5.150  25.484  0.00  0.00    +0.292 C 
BRANCH   6   8
ATOM      7  N   UNL     1      -4.624   7.106  26.838  0.00  0.00    -0.131 NA
ATOM      8  C   UNL     1      -3.628   6.294  26.365  0.00  0.00    +0.120 A 
ATOM      9  C   UNL     1      -2.417   6.742  26.845  0.00  0.00    +0.137 A 
ATOM     10  N   UNL     1      -2.745   7.832  27.594  0.00  0.00    -0.250 N 
ATOM     11  N   UNL     1      -4.071   8.046  27.594  0.00  0.00    -0.065 NA
BRANCH  10  12
ATOM     12  C   UNL     1      -1.860   8.713  28.328  0.00  0.00    +0.164 C 
BRANCH  12  13
ATOM     13  C   UNL     1      -2.624   9.546  29.345  0.00  0.00    +0.129 C 
BRANCH  13  14
ATOM     14  N   UNL     1      -2.980  10.885  28.892  0.00  0.00    -0.298 N 
ATOM     15  H   UNL     1      -2.360  11.406  28.289  0.00  0.00    +0.150 HD
ATOM     16  C   UNL     1      -3.915  11.585  29.606  0.00  0.00    +0.300 C 
ATOM     17  O   UNL     1      -4.535  11.097  30.548  0.00  0.00    -0.253 OA
ATOM     18  N   UNL     1      -4.120  12.857  29.168  0.00  0.00    -0.292 N 
ATOM     19  H   UNL     1      -3.581  13.272  28.420  0.00  0.00    +0.151 HD
BRANCH  18  20
ATOM     20  C   UNL     1      -5.093  13.676  29.852  0.00  0.00    +0.180 C 
BRANCH  20  21
ATOM     21  C   UNL     1      -4.487  14.624  30.821  0.00  0.00    +0.122 A 
ATOM     22  O   UNL     1      -3.943  14.136  31.976  0.00  0.00    -0.466 OA
ATOM     23  C   UNL     1      -3.465  15.207  32.668  0.00  0.00    +0.195 A 
ATOM     24  C   UNL     1      -3.696  16.375  31.979  0.00  0.00    +0.041 A 
ATOM     25  C   UNL     1      -4.357  16.000  30.786  0.00  0.00    +0.046 A 
ENDBRANCH  20  21
ENDBRANCH  18  20
ENDBRANCH  13  14
ENDBRANCH  12  13
ENDBRANCH  10  12
ENDBRANCH   6   8
ENDBRANCH   5   6
ENDBRANCH   1   5
BRANCH   3  26
ATOM     26  C   UNL     1      -5.639   7.406  22.674  0.00  0.00    +0.141 C 
BRANCH  26  27
ATOM     27  C   UNL     1      -6.241   8.575  23.447  0.00  0.00    +0.163 C 
BRANCH  27  28
ATOM     28  O   UNL     1      -5.606   8.695  24.730  0.00  0.00    -0.388 OA
ATOM     29  H   UNL     1      -4.714   8.343  24.680  0.00  0.00    +0.210 HD
ENDBRANCH  27  28
BRANCH  27  30
ATOM     30  C   UNL     1      -6.081   9.868  22.630  0.00  0.00    +0.175 C 
BRANCH  30  31
ATOM     31  C   UNL     1      -4.838  10.666  23.048  0.00  0.00    +0.176 C 
ATOM     32  O   UNL     1      -5.133  11.323  24.312  0.00  0.00    -0.332 OA
ATOM     33  C   UNL     1      -4.017  12.052  24.923  0.00  0.00    +0.277 C 
ATOM     34  C   UNL     1      -3.429  13.078  23.924  0.00  0.00    +0.110 C 
ATOM     35  C   UNL     1      -3.128  12.432  22.555  0.00  0.00    +0.143 C 
ATOM     36  C   UNL     1      -4.356  11.699  22.013  0.00  0.00    +0.133 C 
BRANCH  36  37
ATOM     37  N   UNL     1      -4.032  11.015  20.751  0.00  0.00    -0.308 N 
ATOM     38  H   UNL     1      -3.244  10.384  20.745  0.00  0.00    +0.149 HD
ATOM     39  C   UNL     1      -4.712  11.175  19.612  0.00  0.00    +0.210 C 
ATOM     40  C   UNL     1      -5.892  12.165  19.646  0.00  0.00    +0.109 C 
ATOM     41  O   UNL     1      -4.427  10.578  18.574  0.00  0.00    -0.276 OA
ENDBRANCH  36  37
BRANCH  33  42
ATOM     42  C   UNL     1      -2.909  11.078  25.373  0.00  0.00    +0.414 C 
ATOM     43  O   UNL     1      -2.955   9.892  25.048  0.00  0.00    -0.240 OA
ATOM     44  O   UNL     1      -1.969  11.477  26.062  0.00  0.00    -0.240 OA
ENDBRANCH  33  42
BRANCH  35  45
ATOM     45  O   UNL     1      -2.733  13.440  21.623  0.00  0.00    -0.390 OA
ATOM     46  H   UNL     1      -2.888  14.308  22.004  0.00  0.00    +0.210 HD
ENDBRANCH  35  45
BRANCH  33  47
ATOM     47  O   UNL     1      -4.529  12.774  26.072  0.00  0.00    -0.343 OA
ATOM     48  C   UNL     1      -5.742  13.530  25.830  0.00  0.00    +0.198 C 
ENDBRANCH  33  47
ENDBRANCH  30  31
BRANCH  30  49
ATOM     49  O   UNL     1      -7.262  10.685  22.756  0.00  0.00    -0.387 OA
ATOM     50  H   UNL     1      -8.042  10.126  22.732  0.00  0.00    +0.210 HD
ENDBRANCH  30  49
ENDBRANCH  27  30
ENDBRANCH  26  27
ENDBRANCH   3  26
TORSDOF 18
