REMARK VINA RESULT:    -3.555      2.255      3.910
REMARK INTER + INTRA:         -11.794
REMARK INTER:                  -7.296
REMARK INTRA:                  -4.498
REMARK UNBOUND:                -4.498
REMARK  Name = lig_assembled_33.pdb
REMARK  22 active torsions:
REMARK  status: ('A' for Active; 'I' for Inactive)
REMARK    1  A    between atoms: _2  and  _9
REMARK    2  A    between atoms: _4  and  _20
REMARK    3  A    between atoms: _5  and  _13
REMARK    4  A    between atoms: _5  and  _14
REMARK    5  A    between atoms: _6  and  _7
REMARK    6  A    between atoms: _6  and  _20
REMARK    7  A    between atoms: _9  and  _10
REMARK    8  A    between atoms: _10  and  _11
REMARK    9  A    between atoms: _11  and  _12
REMARK   10  A    between atoms: _12  and  _13
REMARK   11  A    between atoms: _16  and  _36
REMARK   12  A    between atoms: _18  and  _24
REMARK   13  A    between atoms: _19  and  _23
REMARK   14  A    between atoms: _23  and  _24
REMARK   15  A    between atoms: _26  and  _27
REMARK   16  A    between atoms: _28  and  _29
REMARK   17  A    between atoms: _30  and  _32
REMARK   18  A    between atoms: _32  and  _33
REMARK   19  A    between atoms: _32  and  _34
REMARK   20  A    between atoms: _34  and  _35
REMARK   21  A    between atoms: _34  and  _36
REMARK   22  A    between atoms: _37  and  _39
REMARK                            x       y       z     vdW  Elec       q    Type
REMARK                         _______ _______ _______ _____ _____    ______ ____
ROOT
ATOM      1  C   UNL     1      -3.234  10.193  29.040  0.00  0.00    +0.163 C 
ENDROOT
BRANCH   1   2
ATOM      2  O   UNL     1      -2.745  11.001  27.957  0.00  0.00    -0.388 OA
ATOM      3  H   UNL     1      -2.205  10.462  27.374  0.00  0.00    +0.210 HD
ENDBRANCH   1   2
BRANCH   1   4
ATOM      4  C   UNL     1      -4.753   9.979  28.925  0.00  0.00    +0.175 C 
BRANCH   4   5
ATOM      5  C   UNL     1      -5.539  11.275  29.171  0.00  0.00    +0.176 C 
ATOM      6  O   UNL     1      -5.469  12.077  27.960  0.00  0.00    -0.332 OA
ATOM      7  C   UNL     1      -6.257  13.313  27.973  0.00  0.00    +0.277 C 
ATOM      8  C   UNL     1      -5.882  14.182  29.199  0.00  0.00    +0.110 C 
ATOM      9  C   UNL     1      -5.912  13.363  30.507  0.00  0.00    +0.143 C 
ATOM     10  C   UNL     1      -5.062  12.098  30.382  0.00  0.00    +0.133 C 
BRANCH  10  11
ATOM     11  N   UNL     1      -5.168  11.283  31.602  0.00  0.00    -0.308 N 
ATOM     12  H   UNL     1      -6.056  10.844  31.800  0.00  0.00    +0.149 HD
ATOM     13  C   UNL     1      -4.168  11.087  32.466  0.00  0.00    +0.210 C 
ATOM     14  C   UNL     1      -2.835  11.792  32.149  0.00  0.00    +0.109 C 
ATOM     15  O   UNL     1      -4.281  10.388  33.473  0.00  0.00    -0.276 OA
ENDBRANCH  10  11
BRANCH   7  16
ATOM     16  C   UNL     1      -7.767  13.000  28.006  0.00  0.00    +0.414 C 
ATOM     17  O   UNL     1      -8.178  11.893  27.658  0.00  0.00    -0.240 OA
ATOM     18  O   UNL     1      -8.574  13.852  28.380  0.00  0.00    -0.240 OA
ENDBRANCH   7  16
BRANCH   9  19
ATOM     19  O   UNL     1      -5.415  14.159  31.584  0.00  0.00    -0.390 OA
ATOM     20  H   UNL     1      -6.150  14.580  32.036  0.00  0.00    +0.210 HD
ENDBRANCH   9  19
BRANCH   7  21
ATOM     21  O   UNL     1      -5.940  14.060  26.770  0.00  0.00    -0.343 OA
ATOM     22  C   UNL     1      -5.777  13.255  25.575  0.00  0.00    +0.198 C 
ENDBRANCH   7  21
ENDBRANCH   4   5
BRANCH   4  23
ATOM     23  O   UNL     1      -5.182   8.955  29.845  0.00  0.00    -0.387 OA
ATOM     24  H   UNL     1      -6.132   8.840  29.775  0.00  0.00    +0.210 HD
ENDBRANCH   4  23
ENDBRANCH   1   4
BRANCH   1  25
ATOM     25  C   UNL     1      -2.528   8.841  29.043  0.00  0.00    +0.141 C 
BRANCH  25  28
ATOM     26  C   UNL     1      -2.535   7.912  26.754  0.00  0.00    +0.401 C 
ATOM     27  O   UNL     1      -1.601   8.616  26.363  0.00  0.00    -0.226 OA
ATOM     28  N   UNL     1      -3.036   7.955  27.988  0.00  0.00    -0.279 N 
ATOM     29  H   UNL     1      -3.810   7.345  28.211  0.00  0.00    +0.152 HD
BRANCH  26  30
ATOM     30  O   UNL     1      -3.135   6.987  25.842  0.00  0.00    -0.444 OA
BRANCH  30  31
ATOM     31  C   UNL     1      -4.559   7.072  25.945  0.00  0.00    +0.292 C 
BRANCH  31  33
ATOM     32  N   UNL     1      -5.463   9.283  25.300  0.00  0.00    -0.131 NA
ATOM     33  C   UNL     1      -5.092   8.013  24.942  0.00  0.00    +0.120 A 
ATOM     34  C   UNL     1      -5.314   7.843  23.593  0.00  0.00    +0.137 A 
ATOM     35  N   UNL     1      -5.810   9.046  23.190  0.00  0.00    -0.251 N 
ATOM     36  N   UNL     1      -5.915   9.902  24.219  0.00  0.00    -0.065 NA
BRANCH  35  37
ATOM     37  C   UNL     1      -6.216   9.448  21.859  0.00  0.00    +0.145 C 
BRANCH  37  38
ATOM     38  C   UNL     1      -5.022   9.823  20.983  0.00  0.00    +0.023 C 
BRANCH  38  39
ATOM     39  C   UNL     1      -4.566  11.268  21.195  0.00  0.00    +0.002 C 
BRANCH  39  40
ATOM     40  C   UNL     1      -3.171  11.287  21.826  0.00  0.00    +0.011 C 
BRANCH  40  41
ATOM     41  C   UNL     1      -3.038  12.326  22.937  0.00  0.00    +0.120 C 
BRANCH  41  42
ATOM     42  C   UNL     1      -2.686  11.674  24.256  0.00  0.00    +0.305 C 
ATOM     43  O   UNL     1      -2.316  12.264  25.259  0.00  0.00    -0.251 OA
BRANCH  42  44
ATOM     44  O   UNL     1      -2.830  10.329  24.221  0.00  0.00    -0.481 OA
ATOM     45  H   UNL     1      -2.043   9.840  24.521  0.00  0.00    +0.295 HD
ENDBRANCH  42  44
ENDBRANCH  41  42
ENDBRANCH  40  41
ENDBRANCH  39  40
ENDBRANCH  38  39
ENDBRANCH  37  38
ENDBRANCH  35  37
ENDBRANCH  31  33
ENDBRANCH  30  31
ENDBRANCH  26  30
ENDBRANCH  25  28
ENDBRANCH   1  25
TORSDOF 20
