REMARK VINA RESULT:    -4.951      3.338      8.826
REMARK INTER + INTRA:         -10.739
REMARK INTER:                  -7.942
REMARK INTRA:                  -2.797
REMARK UNBOUND:                -2.170
REMARK  Name = lig_assembled_87.pdb
REMARK  17 active torsions:
REMARK  status: ('A' for Active; 'I' for Inactive)
REMARK    1  A    between atoms: _2  and  _10
REMARK    2  A    between atoms: _3  and  _13
REMARK    3  A    between atoms: _5  and  _21
REMARK    4  A    between atoms: _7  and  _8
REMARK    5  A    between atoms: _7  and  _21
REMARK    6  A    between atoms: _17  and  _37
REMARK    7  A    between atoms: _19  and  _25
REMARK    8  A    between atoms: _20  and  _24
REMARK    9  A    between atoms: _24  and  _25
REMARK   10  A    between atoms: _27  and  _28
REMARK   11  A    between atoms: _29  and  _30
REMARK   12  A    between atoms: _31  and  _33
REMARK   13  A    between atoms: _33  and  _34
REMARK   14  A    between atoms: _33  and  _35
REMARK   15  A    between atoms: _35  and  _36
REMARK   16  A    between atoms: _35  and  _37
REMARK   17  A    between atoms: _38  and  _40
REMARK                            x       y       z     vdW  Elec       q    Type
REMARK                         _______ _______ _______ _____ _____    ______ ____
ROOT
ATOM      1  C   UNL     1      -5.477   7.319  24.410  0.00  0.00    +0.163 C 
ENDROOT
BRANCH   1   2
ATOM      2  O   UNL     1      -4.266   6.739  24.923  0.00  0.00    -0.388 OA
ATOM      3  H   UNL     1      -4.461   5.886  25.317  0.00  0.00    +0.210 HD
ENDBRANCH   1   2
BRANCH   1   4
ATOM      4  C   UNL     1      -6.183   6.325  23.494  0.00  0.00    +0.141 C 
BRANCH   4   7
ATOM      5  C   UNL     1      -5.281   6.280  21.194  0.00  0.00    +0.401 C 
ATOM      6  O   UNL     1      -4.413   5.443  21.450  0.00  0.00    -0.226 OA
ATOM      7  N   UNL     1      -6.147   6.753  22.090  0.00  0.00    -0.279 N 
ATOM      8  H   UNL     1      -6.817   7.446  21.786  0.00  0.00    +0.152 HD
BRANCH   5   9
ATOM      9  O   UNL     1      -5.381   6.792  19.862  0.00  0.00    -0.444 OA
BRANCH   9  10
ATOM     10  C   UNL     1      -5.946   8.105  19.896  0.00  0.00    +0.292 C 
BRANCH  10  12
ATOM     11  N   UNL     1      -6.894   9.646  18.214  0.00  0.00    -0.131 NA
ATOM     12  C   UNL     1      -5.990   8.673  18.537  0.00  0.00    +0.120 A 
ATOM     13  C   UNL     1      -5.214   8.396  17.435  0.00  0.00    +0.137 A 
ATOM     14  N   UNL     1      -5.608   9.319  16.502  0.00  0.00    -0.248 N 
ATOM     15  N   UNL     1      -6.695   9.980  16.951  0.00  0.00    -0.065 NA
BRANCH  14  16
ATOM     16  C   UNL     1      -5.056   9.651  15.176  0.00  0.00    +0.112 C 
ATOM     17  C   UNL     1      -3.519   9.870  15.145  0.00  0.00    +0.045 C 
ATOM     18  C   UNL     1      -3.052  11.256  14.669  0.00  0.00    +0.059 C 
ATOM     19  C   UNL     1      -3.111  11.391  13.141  0.00  0.00    +0.020 C 
ATOM     20  C   UNL     1      -4.454  12.067  12.864  0.00  0.00    +0.020 C 
ATOM     21  C   UNL     1      -5.136  12.104  14.232  0.00  0.00    +0.059 C 
ATOM     22  N   UNL     1      -3.961  12.322  15.070  0.00  0.00    -0.299 NA
ATOM     23  C   UNL     1      -4.175  12.523  16.487  0.00  0.00    +0.105 C 
ATOM     24  C   UNL     1      -5.876  10.791  14.498  0.00  0.00    +0.045 C 
ENDBRANCH  14  16
ENDBRANCH  10  12
ENDBRANCH   9  10
ENDBRANCH   5   9
ENDBRANCH   4   7
ENDBRANCH   1   4
BRANCH   1  25
ATOM     25  C   UNL     1      -5.182   8.613  23.634  0.00  0.00    +0.175 C 
BRANCH  25  26
ATOM     26  C   UNL     1      -4.052   9.429  24.279  0.00  0.00    +0.176 C 
ATOM     27  O   UNL     1      -4.330   9.529  25.703  0.00  0.00    -0.332 OA
ATOM     28  C   UNL     1      -3.296  10.190  26.506  0.00  0.00    +0.277 C 
ATOM     29  C   UNL     1      -2.982  11.594  25.934  0.00  0.00    +0.110 C 
ATOM     30  C   UNL     1      -2.711  11.543  24.416  0.00  0.00    +0.143 C 
ATOM     31  C   UNL     1      -3.847  10.833  23.679  0.00  0.00    +0.133 C 
BRANCH  31  32
ATOM     32  N   UNL     1      -3.536  10.713  22.245  0.00  0.00    -0.308 N 
ATOM     33  H   UNL     1      -2.759  10.125  21.979  0.00  0.00    +0.149 HD
ATOM     34  C   UNL     1      -4.214  11.331  21.274  0.00  0.00    +0.210 C 
ATOM     35  C   UNL     1      -5.376  12.240  21.716  0.00  0.00    +0.109 C 
ATOM     36  O   UNL     1      -3.940  11.201  20.081  0.00  0.00    -0.276 OA
ENDBRANCH  31  32
BRANCH  28  37
ATOM     37  C   UNL     1      -2.006   9.345  26.537  0.00  0.00    +0.414 C 
ATOM     38  O   UNL     1      -0.907   9.894  26.616  0.00  0.00    -0.240 OA
ATOM     39  O   UNL     1      -2.062   8.116  26.485  0.00  0.00    -0.240 OA
ENDBRANCH  28  37
BRANCH  30  40
ATOM     40  O   UNL     1      -2.576  12.870  23.905  0.00  0.00    -0.390 OA
ATOM     41  H   UNL     1      -2.359  12.834  22.971  0.00  0.00    +0.210 HD
ENDBRANCH  30  40
BRANCH  28  42
ATOM     42  O   UNL     1      -3.809  10.349  27.854  0.00  0.00    -0.343 OA
ATOM     43  C   UNL     1      -3.788  11.708  28.360  0.00  0.00    +0.198 C 
ENDBRANCH  28  42
ENDBRANCH  25  26
BRANCH  25  44
ATOM     44  O   UNL     1      -6.376   9.414  23.530  0.00  0.00    -0.387 OA
ATOM     45  H   UNL     1      -7.130   8.844  23.361  0.00  0.00    +0.210 HD
ENDBRANCH  25  44
ENDBRANCH   1  25
TORSDOF 14
