REMARK VINA RESULT:    -5.177      3.204      7.296
REMARK INTER + INTRA:         -11.567
REMARK INTER:                  -8.703
REMARK INTRA:                  -2.864
REMARK UNBOUND:                -2.303
REMARK  Name = lig_assembled_4.pdb
REMARK  19 active torsions:
REMARK  status: ('A' for Active; 'I' for Inactive)
REMARK    1  A    between atoms: _2  and  _9
REMARK    2  A    between atoms: _4  and  _21
REMARK    3  A    between atoms: _6  and  _7
REMARK    4  A    between atoms: _6  and  _21
REMARK    5  A    between atoms: _10  and  _11
REMARK    6  A    between atoms: _11  and  _12
REMARK    7  A    between atoms: _11  and  _13
REMARK    8  A    between atoms: _17  and  _37
REMARK    9  A    between atoms: _19  and  _25
REMARK   10  A    between atoms: _20  and  _24
REMARK   11  A    between atoms: _24  and  _25
REMARK   12  A    between atoms: _27  and  _28
REMARK   13  A    between atoms: _29  and  _30
REMARK   14  A    between atoms: _31  and  _33
REMARK   15  A    between atoms: _33  and  _34
REMARK   16  A    between atoms: _33  and  _35
REMARK   17  A    between atoms: _35  and  _36
REMARK   18  A    between atoms: _35  and  _37
REMARK   19  A    between atoms: _38  and  _40
REMARK                            x       y       z     vdW  Elec       q    Type
REMARK                         _______ _______ _______ _____ _____    ______ ____
ROOT
ATOM      1  C   UNL     1      -4.499   8.235  26.034  0.00  0.00    +0.163 C 
ENDROOT
BRANCH   1   2
ATOM      2  O   UNL     1      -5.482   7.273  26.450  0.00  0.00    -0.388 OA
ATOM      3  H   UNL     1      -6.211   7.726  26.882  0.00  0.00    +0.210 HD
ENDBRANCH   1   2
BRANCH   1   4
ATOM      4  C   UNL     1      -4.095   7.975  24.586  0.00  0.00    +0.141 C 
BRANCH   4   7
ATOM      5  C   UNL     1      -4.345   9.421  22.598  0.00  0.00    +0.401 C 
ATOM      6  O   UNL     1      -3.146   9.398  22.314  0.00  0.00    -0.226 OA
ATOM      7  N   UNL     1      -4.876   8.789  23.646  0.00  0.00    -0.279 N 
ATOM      8  H   UNL     1      -5.870   8.875  23.802  0.00  0.00    +0.152 HD
BRANCH   5   9
ATOM      9  O   UNL     1      -5.241  10.167  21.770  0.00  0.00    -0.444 OA
BRANCH   9  10
ATOM     10  C   UNL     1      -4.501  11.119  21.002  0.00  0.00    +0.292 C 
BRANCH  10  12
ATOM     11  N   UNL     1      -3.349  13.029  22.060  0.00  0.00    -0.131 NA
ATOM     12  C   UNL     1      -4.508  12.438  21.661  0.00  0.00    +0.121 A 
ATOM     13  C   UNL     1      -5.568  13.242  22.014  0.00  0.00    +0.143 A 
ATOM     14  N   UNL     1      -5.007  14.267  22.752  0.00  0.00    -0.219 N 
ATOM     15  N   UNL     1      -3.662  14.150  22.696  0.00  0.00    -0.060 NA
BRANCH  14  16
ATOM     16  C   UNL     1      -5.689  15.282  23.487  0.00  0.00    +0.070 A 
ATOM     17  C   UNL     1      -5.720  16.647  23.088  0.00  0.00    -0.019 A 
ATOM     18  C   UNL     1      -6.407  17.554  23.926  0.00  0.00    +0.006 A 
ATOM     19  C   UNL     1      -7.024  17.150  25.111  0.00  0.00    +0.000 A 
ATOM     20  C   UNL     1      -6.993  15.815  25.485  0.00  0.00    +0.002 A 
ATOM     21  C   UNL     1      -6.330  14.889  24.683  0.00  0.00    +0.028 A 
BRANCH  17  22
ATOM     22  C   UNL     1      -5.054  17.191  21.823  0.00  0.00    +0.015 C 
ATOM     23  C   UNL     1      -3.944  18.225  22.065  0.00  0.00    +0.012 C 
ATOM     24  C   UNL     1      -6.113  17.777  20.886  0.00  0.00    +0.012 C 
ENDBRANCH  17  22
ENDBRANCH  14  16
ENDBRANCH  10  12
ENDBRANCH   9  10
ENDBRANCH   5   9
ENDBRANCH   4   7
ENDBRANCH   1   4
BRANCH   1  25
ATOM     25  C   UNL     1      -3.253   8.173  26.934  0.00  0.00    +0.175 C 
BRANCH  25  26
ATOM     26  C   UNL     1      -3.378   9.092  28.158  0.00  0.00    +0.176 C 
ATOM     27  O   UNL     1      -4.376   8.518  29.047  0.00  0.00    -0.332 OA
ATOM     28  C   UNL     1      -4.555   9.209  30.328  0.00  0.00    +0.277 C 
ATOM     29  C   UNL     1      -4.861  10.709  30.096  0.00  0.00    +0.110 C 
ATOM     30  C   UNL     1      -3.845  11.355  29.131  0.00  0.00    +0.143 C 
ATOM     31  C   UNL     1      -3.735  10.554  27.833  0.00  0.00    +0.133 C 
BRANCH  31  32
ATOM     32  N   UNL     1      -2.701  11.129  26.958  0.00  0.00    -0.308 N 
ATOM     33  H   UNL     1      -1.736  11.031  27.241  0.00  0.00    +0.149 HD
ATOM     34  C   UNL     1      -2.955  11.772  25.815  0.00  0.00    +0.210 C 
ATOM     35  C   UNL     1      -4.437  11.928  25.425  0.00  0.00    +0.109 C 
ATOM     36  O   UNL     1      -2.068  12.231  25.095  0.00  0.00    -0.276 OA
ENDBRANCH  31  32
BRANCH  28  37
ATOM     37  C   UNL     1      -3.294   9.070  31.206  0.00  0.00    +0.414 C 
ATOM     38  O   UNL     1      -2.785   7.965  31.389  0.00  0.00    -0.240 OA
ATOM     39  O   UNL     1      -2.786  10.062  31.730  0.00  0.00    -0.240 OA
ENDBRANCH  28  37
BRANCH  30  40
ATOM     40  O   UNL     1      -4.250  12.690  28.827  0.00  0.00    -0.390 OA
ATOM     41  H   UNL     1      -4.604  13.105  29.617  0.00  0.00    +0.210 HD
ENDBRANCH  30  40
BRANCH  28  42
ATOM     42  O   UNL     1      -5.690   8.611  31.006  0.00  0.00    -0.343 OA
ATOM     43  C   UNL     1      -6.497   7.728  30.186  0.00  0.00    +0.198 C 
ENDBRANCH  28  42
ENDBRANCH  25  26
BRANCH  25  44
ATOM     44  O   UNL     1      -2.075   8.513  26.176  0.00  0.00    -0.387 OA
ATOM     45  H   UNL     1      -2.020   7.950  25.400  0.00  0.00    +0.210 HD
ENDBRANCH  25  44
ENDBRANCH   1  25
TORSDOF 15
