REMARK VINA RESULT:    -4.313      3.188      5.566
REMARK INTER + INTRA:         -10.462
REMARK INTER:                  -7.971
REMARK INTRA:                  -2.491
REMARK UNBOUND:                -2.997
REMARK  Name = lig_assembled_15.pdb
REMARK  16 active torsions:
REMARK  status: ('A' for Active; 'I' for Inactive)
REMARK    1  A    between atoms: _2  and  _9
REMARK    2  A    between atoms: _4  and  _18
REMARK    3  A    between atoms: _6  and  _7
REMARK    4  A    between atoms: _6  and  _18
REMARK    5  A    between atoms: _14  and  _34
REMARK    6  A    between atoms: _16  and  _22
REMARK    7  A    between atoms: _17  and  _21
REMARK    8  A    between atoms: _21  and  _22
REMARK    9  A    between atoms: _24  and  _25
REMARK   10  A    between atoms: _26  and  _27
REMARK   11  A    between atoms: _28  and  _30
REMARK   12  A    between atoms: _30  and  _31
REMARK   13  A    between atoms: _30  and  _32
REMARK   14  A    between atoms: _32  and  _33
REMARK   15  A    between atoms: _32  and  _34
REMARK   16  A    between atoms: _35  and  _37
REMARK                            x       y       z     vdW  Elec       q    Type
REMARK                         _______ _______ _______ _____ _____    ______ ____
ROOT
ATOM      1  C   UNL     1      -3.070  11.364  25.779  0.00  0.00    +0.163 C 
ENDROOT
BRANCH   1   2
ATOM      2  O   UNL     1      -1.974  12.181  25.337  0.00  0.00    -0.388 OA
ATOM      3  H   UNL     1      -2.249  13.101  25.312  0.00  0.00    +0.210 HD
ENDBRANCH   1   2
BRANCH   1   4
ATOM      4  C   UNL     1      -2.548  10.201  26.617  0.00  0.00    +0.141 C 
BRANCH   4   7
ATOM      5  C   UNL     1      -3.163   9.011  28.693  0.00  0.00    +0.401 C 
ATOM      6  O   UNL     1      -2.420   8.052  28.475  0.00  0.00    -0.226 OA
ATOM      7  N   UNL     1      -3.290  10.057  27.875  0.00  0.00    -0.279 N 
ATOM      8  H   UNL     1      -3.933  10.792  28.136  0.00  0.00    +0.152 HD
BRANCH   5   9
ATOM      9  O   UNL     1      -3.949   9.024  29.888  0.00  0.00    -0.444 OA
BRANCH   9  10
ATOM     10  C   UNL     1      -3.091   9.166  31.023  0.00  0.00    +0.292 C 
BRANCH  10  12
ATOM     11  N   UNL     1      -1.994  11.026  32.229  0.00  0.00    -0.131 NA
ATOM     12  C   UNL     1      -3.000  10.583  31.422  0.00  0.00    +0.121 A 
ATOM     13  C   UNL     1      -3.813  11.645  31.094  0.00  0.00    +0.143 A 
ATOM     14  N   UNL     1      -3.239  12.734  31.707  0.00  0.00    -0.220 N 
ATOM     15  N   UNL     1      -2.149  12.332  32.404  0.00  0.00    -0.060 NA
BRANCH  14  16
ATOM     16  C   UNL     1      -3.636  14.097  31.650  0.00  0.00    +0.067 A 
ATOM     17  C   UNL     1      -3.242  15.004  32.643  0.00  0.00    +0.029 A 
ATOM     18  C   UNL     1      -3.678  16.332  32.590  0.00  0.00    +0.017 A 
ATOM     19  C   UNL     1      -4.500  16.755  31.548  0.00  0.00    +0.018 A 
ATOM     20 BR   UNL     1      -5.105  18.545  31.500  0.00  0.00    -0.050 Br
ATOM     21  C   UNL     1      -4.885  15.865  30.548  0.00  0.00    +0.017 A 
ATOM     22  C   UNL     1      -4.453  14.537  30.595  0.00  0.00    +0.029 A 
ENDBRANCH  14  16
ENDBRANCH  10  12
ENDBRANCH   9  10
ENDBRANCH   5   9
ENDBRANCH   4   7
ENDBRANCH   1   4
BRANCH   1  23
ATOM     23  C   UNL     1      -3.867  10.818  24.582  0.00  0.00    +0.175 C 
BRANCH  23  24
ATOM     24  C   UNL     1      -4.795  11.880  23.974  0.00  0.00    +0.176 C 
ATOM     25  O   UNL     1      -3.968  12.849  23.273  0.00  0.00    -0.332 OA
ATOM     26  C   UNL     1      -4.694  13.887  22.535  0.00  0.00    +0.277 C 
ATOM     27  C   UNL     1      -5.684  14.623  23.470  0.00  0.00    +0.110 C 
ATOM     28  C   UNL     1      -6.565  13.633  24.261  0.00  0.00    +0.143 C 
ATOM     29  C   UNL     1      -5.707  12.596  24.987  0.00  0.00    +0.133 C 
BRANCH  29  30
ATOM     30  N   UNL     1      -6.560  11.606  25.666  0.00  0.00    -0.308 N 
ATOM     31  H   UNL     1      -7.069  10.950  25.091  0.00  0.00    +0.149 HD
ATOM     32  C   UNL     1      -6.704  11.520  26.991  0.00  0.00    +0.210 C 
ATOM     33  C   UNL     1      -5.935  12.552  27.837  0.00  0.00    +0.109 C 
ATOM     34  O   UNL     1      -7.414  10.671  27.532  0.00  0.00    -0.276 OA
ENDBRANCH  29  30
BRANCH  26  35
ATOM     35  C   UNL     1      -5.465  13.275  21.347  0.00  0.00    +0.414 C 
ATOM     36  O   UNL     1      -5.012  12.300  20.750  0.00  0.00    -0.240 OA
ATOM     37  O   UNL     1      -6.540  13.756  20.986  0.00  0.00    -0.240 OA
ENDBRANCH  26  35
BRANCH  28  38
ATOM     38  O   UNL     1      -7.352  14.345  25.216  0.00  0.00    -0.390 OA
ATOM     39  H   UNL     1      -6.898  14.355  26.062  0.00  0.00    +0.210 HD
ENDBRANCH  28  38
BRANCH  26  40
ATOM     40  O   UNL     1      -3.726  14.850  22.045  0.00  0.00    -0.343 OA
ATOM     41  C   UNL     1      -4.184  16.225  22.030  0.00  0.00    +0.198 C 
ENDBRANCH  26  40
ENDBRANCH  23  24
BRANCH  23  42
ATOM     42  O   UNL     1      -4.629   9.661  24.979  0.00  0.00    -0.387 OA
ATOM     43  H   UNL     1      -4.046   9.018  25.390  0.00  0.00    +0.210 HD
ENDBRANCH  23  42
ENDBRANCH   1  23
TORSDOF 14
