REMARK VINA RESULT:    -4.843      2.923      5.793
REMARK INTER + INTRA:         -12.816
REMARK INTER:                  -8.999
REMARK INTRA:                  -3.818
REMARK UNBOUND:                -3.302
REMARK  Name = lig_assembled_84.pdb
REMARK  21 active torsions:
REMARK  status: ('A' for Active; 'I' for Inactive)
REMARK    1  A    between atoms: _2  and  _11
REMARK    2  A    between atoms: _3  and  _14
REMARK    3  A    between atoms: _4  and  _17
REMARK    4  A    between atoms: _6  and  _28
REMARK    5  A    between atoms: _8  and  _9
REMARK    6  A    between atoms: _8  and  _28
REMARK    7  A    between atoms: _11  and  _12
REMARK    8  A    between atoms: _12  and  _13
REMARK    9  A    between atoms: _12  and  _14
REMARK   10  A    between atoms: _24  and  _44
REMARK   11  A    between atoms: _26  and  _32
REMARK   12  A    between atoms: _27  and  _31
REMARK   13  A    between atoms: _31  and  _32
REMARK   14  A    between atoms: _34  and  _35
REMARK   15  A    between atoms: _36  and  _37
REMARK   16  A    between atoms: _38  and  _40
REMARK   17  A    between atoms: _40  and  _41
REMARK   18  A    between atoms: _40  and  _42
REMARK   19  A    between atoms: _42  and  _43
REMARK   20  A    between atoms: _42  and  _44
REMARK   21  A    between atoms: _45  and  _47
REMARK                            x       y       z     vdW  Elec       q    Type
REMARK                         _______ _______ _______ _____ _____    ______ ____
ROOT
ATOM      1  C   UNL     1      -2.622   8.481  26.829  0.00  0.00    +0.401 C 
ATOM      2  O   UNL     1      -1.766   7.742  26.338  0.00  0.00    -0.226 OA
ATOM      3  N   UNL     1      -3.830   8.677  26.301  0.00  0.00    -0.279 N 
ATOM      4  H   UNL     1      -4.467   9.295  26.783  0.00  0.00    +0.152 HD
ENDROOT
BRANCH   1   5
ATOM      5  O   UNL     1      -2.324   9.178  28.042  0.00  0.00    -0.444 OA
BRANCH   5   6
ATOM      6  C   UNL     1      -3.542   9.512  28.713  0.00  0.00    +0.292 C 
BRANCH   6   8
ATOM      7  N   UNL     1      -2.686   9.688  31.033  0.00  0.00    -0.131 NA
ATOM      8  C   UNL     1      -3.269  10.280  29.942  0.00  0.00    +0.120 A 
ATOM      9  C   UNL     1      -3.544  11.596  30.238  0.00  0.00    +0.137 A 
ATOM     10  N   UNL     1      -3.169  11.725  31.542  0.00  0.00    -0.251 N 
ATOM     11  N   UNL     1      -2.632  10.584  32.010  0.00  0.00    -0.065 NA
BRANCH  10  12
ATOM     12  C   UNL     1      -3.415  12.845  32.430  0.00  0.00    +0.149 C 
BRANCH  12  13
ATOM     13  C   UNL     1      -4.802  13.488  32.269  0.00  0.00    +0.021 C 
ATOM     14  C   UNL     1      -5.571  13.493  33.598  0.00  0.00    +0.010 C 
BRANCH  13  15
ATOM     15  C   UNL     1      -4.690  14.943  31.752  0.00  0.00    +0.089 C 
BRANCH  15  16
ATOM     16  N   UNL     1      -5.731  15.363  30.804  0.00  0.00    -0.299 NA
ATOM     17  C   UNL     1      -6.027  14.259  29.852  0.00  0.00    +0.103 C 
ATOM     18  C   UNL     1      -7.177  14.627  28.891  0.00  0.00    +0.120 C 
ATOM     19  N   UNL     1      -6.829  15.843  28.147  0.00  0.00    -0.327 N 
ATOM     20  C   UNL     1      -6.462  16.987  28.995  0.00  0.00    +0.120 C 
ATOM     21  C   UNL     1      -5.364  16.566  30.015  0.00  0.00    +0.103 C 
BRANCH  19  22
ATOM     22  C   UNL     1      -6.896  15.919  26.775  0.00  0.00    +0.030 A 
ATOM     23  C   UNL     1      -6.955  17.159  26.113  0.00  0.00    +0.024 A 
ATOM     24  C   UNL     1      -7.049  17.255  24.720  0.00  0.00    +0.022 A 
ATOM     25  C   UNL     1      -7.079  16.101  23.955  0.00  0.00    +0.041 A 
ATOM     26 CL   UNL     1      -7.200  16.210  22.242  0.00  0.00    -0.084 Cl
ATOM     27  C   UNL     1      -7.020  14.855  24.570  0.00  0.00    +0.022 A 
ATOM     28  C   UNL     1      -6.932  14.773  25.967  0.00  0.00    +0.024 A 
ENDBRANCH  19  22
ENDBRANCH  15  16
ENDBRANCH  13  15
ENDBRANCH  12  13
ENDBRANCH  10  12
ENDBRANCH   6   8
ENDBRANCH   5   6
ENDBRANCH   1   5
BRANCH   3  29
ATOM     29  C   UNL     1      -4.287   8.045  25.057  0.00  0.00    +0.141 C 
BRANCH  29  30
ATOM     30  C   UNL     1      -4.189   8.995  23.867  0.00  0.00    +0.163 C 
BRANCH  30  31
ATOM     31  O   UNL     1      -3.668   8.298  22.724  0.00  0.00    -0.388 OA
ATOM     32  H   UNL     1      -2.855   7.847  22.966  0.00  0.00    +0.210 HD
ENDBRANCH  30  31
BRANCH  30  33
ATOM     33  C   UNL     1      -5.577   9.586  23.566  0.00  0.00    +0.175 C 
BRANCH  33  34
ATOM     34  C   UNL     1      -5.486  10.910  22.794  0.00  0.00    +0.176 C 
ATOM     35  O   UNL     1      -5.165  10.600  21.410  0.00  0.00    -0.332 OA
ATOM     36  C   UNL     1      -5.141  11.743  20.493  0.00  0.00    +0.277 C 
ATOM     37  C   UNL     1      -4.182  12.839  21.020  0.00  0.00    +0.110 C 
ATOM     38  C   UNL     1      -4.464  13.180  22.498  0.00  0.00    +0.143 C 
ATOM     39  C   UNL     1      -4.470  11.918  23.361  0.00  0.00    +0.133 C 
BRANCH  39  40
ATOM     40  N   UNL     1      -4.825  12.245  24.751  0.00  0.00    -0.308 N 
ATOM     41  H   UNL     1      -5.791  12.467  24.951  0.00  0.00    +0.149 HD
ATOM     42  C   UNL     1      -3.956  12.269  25.765  0.00  0.00    +0.210 C 
ATOM     43  C   UNL     1      -2.488  11.952  25.423  0.00  0.00    +0.109 C 
ATOM     44  O   UNL     1      -4.286  12.532  26.922  0.00  0.00    -0.276 OA
ENDBRANCH  39  40
BRANCH  36  45
ATOM     45  C   UNL     1      -6.555  12.335  20.320  0.00  0.00    +0.414 C 
ATOM     46  O   UNL     1      -7.541  11.599  20.326  0.00  0.00    -0.240 OA
ATOM     47  O   UNL     1      -6.710  13.549  20.174  0.00  0.00    -0.240 OA
ENDBRANCH  36  45
BRANCH  36  48
ATOM     48  O   UNL     1      -4.645  11.280  19.211  0.00  0.00    -0.343 OA
ATOM     49  C   UNL     1      -4.950   9.897  18.900  0.00  0.00    +0.198 C 
ENDBRANCH  36  48
BRANCH  38  50
ATOM     50  O   UNL     1      -3.467  14.079  22.984  0.00  0.00    -0.390 OA
ATOM     51  H   UNL     1      -2.629  13.616  23.062  0.00  0.00    +0.210 HD
ENDBRANCH  38  50
ENDBRANCH  33  34
BRANCH  33  52
ATOM     52  O   UNL     1      -6.313   9.774  24.791  0.00  0.00    -0.387 OA
ATOM     53  H   UNL     1      -5.702   9.968  25.505  0.00  0.00    +0.210 HD
ENDBRANCH  33  52
ENDBRANCH  30  33
ENDBRANCH  29  30
ENDBRANCH   3  29
TORSDOF 18
