REMARK VINA RESULT:    -4.734      3.387      5.115
REMARK INTER + INTRA:         -10.699
REMARK INTER:                  -7.888
REMARK INTRA:                  -2.811
REMARK UNBOUND:                -2.505
REMARK  Name = lig_assembled_3.pdb
REMARK  16 active torsions:
REMARK  status: ('A' for Active; 'I' for Inactive)
REMARK    1  A    between atoms: _2  and  _9
REMARK    2  A    between atoms: _4  and  _18
REMARK    3  A    between atoms: _6  and  _7
REMARK    4  A    between atoms: _6  and  _18
REMARK    5  A    between atoms: _14  and  _34
REMARK    6  A    between atoms: _16  and  _22
REMARK    7  A    between atoms: _17  and  _21
REMARK    8  A    between atoms: _21  and  _22
REMARK    9  A    between atoms: _24  and  _25
REMARK   10  A    between atoms: _26  and  _27
REMARK   11  A    between atoms: _28  and  _30
REMARK   12  A    between atoms: _30  and  _31
REMARK   13  A    between atoms: _30  and  _32
REMARK   14  A    between atoms: _32  and  _33
REMARK   15  A    between atoms: _32  and  _34
REMARK   16  A    between atoms: _35  and  _37
REMARK                            x       y       z     vdW  Elec       q    Type
REMARK                         _______ _______ _______ _____ _____    ______ ____
ROOT
ATOM      1  C   UNL     1      -5.399   8.751  24.612  0.00  0.00    +0.163 C 
ENDROOT
BRANCH   1   2
ATOM      2  O   UNL     1      -5.047   9.167  25.942  0.00  0.00    -0.388 OA
ATOM      3  H   UNL     1      -5.794   9.028  26.529  0.00  0.00    +0.210 HD
ENDBRANCH   1   2
BRANCH   1   4
ATOM      4  C   UNL     1      -5.528   7.233  24.556  0.00  0.00    +0.141 C 
BRANCH   4   7
ATOM      5  C   UNL     1      -3.751   5.785  25.478  0.00  0.00    +0.401 C 
ATOM      6  O   UNL     1      -3.279   5.502  24.374  0.00  0.00    -0.226 OA
ATOM      7  N   UNL     1      -4.805   6.581  25.656  0.00  0.00    -0.279 N 
ATOM      8  H   UNL     1      -5.125   6.746  26.600  0.00  0.00    +0.152 HD
BRANCH   5   9
ATOM      9  O   UNL     1      -3.150   5.233  26.652  0.00  0.00    -0.444 OA
BRANCH   9  10
ATOM     10  C   UNL     1      -1.910   5.897  26.912  0.00  0.00    +0.292 C 
BRANCH  10  12
ATOM     11  N   UNL     1      -2.062   8.310  26.389  0.00  0.00    -0.131 NA
ATOM     12  C   UNL     1      -2.152   7.300  27.302  0.00  0.00    +0.121 A 
ATOM     13  C   UNL     1      -2.491   7.827  28.526  0.00  0.00    +0.143 A 
ATOM     14  N   UNL     1      -2.627   9.179  28.308  0.00  0.00    -0.220 N 
ATOM     15  N   UNL     1      -2.346   9.449  27.008  0.00  0.00    -0.060 NA
BRANCH  14  16
ATOM     16  C   UNL     1      -3.012  10.193  29.223  0.00  0.00    +0.067 A 
ATOM     17  C   UNL     1      -2.761  10.057  30.596  0.00  0.00    +0.028 A 
ATOM     18  C   UNL     1      -3.176  11.053  31.484  0.00  0.00    +0.002 A 
ATOM     19  C   UNL     1      -3.837  12.184  31.010  0.00  0.00    +0.000 A 
ATOM     20  C   UNL     1      -4.081  12.330  29.646  0.00  0.00    +0.002 A 
ATOM     21  C   UNL     1      -3.670  11.339  28.751  0.00  0.00    +0.028 A 
ENDBRANCH  14  16
ENDBRANCH  10  12
ENDBRANCH   9  10
ENDBRANCH   5   9
ENDBRANCH   4   7
ENDBRANCH   1   4
BRANCH   1  22
ATOM     22  C   UNL     1      -4.342   9.215  23.594  0.00  0.00    +0.175 C 
BRANCH  22  23
ATOM     23  C   UNL     1      -4.952  10.085  22.485  0.00  0.00    +0.176 C 
ATOM     24  O   UNL     1      -4.520   9.545  21.205  0.00  0.00    -0.332 OA
ATOM     25  C   UNL     1      -5.094  10.189  20.020  0.00  0.00    +0.277 C 
ATOM     26  C   UNL     1      -4.838  11.715  20.056  0.00  0.00    +0.110 C 
ATOM     27  C   UNL     1      -5.252  12.330  21.410  0.00  0.00    +0.143 C 
ATOM     28  C   UNL     1      -4.601  11.582  22.574  0.00  0.00    +0.133 C 
BRANCH  28  29
ATOM     29  N   UNL     1      -5.070  12.121  23.860  0.00  0.00    -0.308 N 
ATOM     30  H   UNL     1      -6.056  12.048  24.070  0.00  0.00    +0.149 HD
ATOM     31  C   UNL     1      -4.280  12.699  24.767  0.00  0.00    +0.210 C 
ATOM     32  C   UNL     1      -2.787  12.818  24.406  0.00  0.00    +0.109 C 
ATOM     33  O   UNL     1      -4.699  13.129  25.843  0.00  0.00    -0.276 OA
ENDBRANCH  28  29
BRANCH  25  34
ATOM     34  C   UNL     1      -6.611   9.922  19.932  0.00  0.00    +0.414 C 
ATOM     35  O   UNL     1      -7.040   8.769  19.952  0.00  0.00    -0.240 OA
ATOM     36  O   UNL     1      -7.405  10.859  19.842  0.00  0.00    -0.240 OA
ENDBRANCH  25  34
BRANCH  27  37
ATOM     37  O   UNL     1      -4.860  13.703  21.455  0.00  0.00    -0.390 OA
ATOM     38  H   UNL     1      -4.648  14.005  20.569  0.00  0.00    +0.210 HD
ENDBRANCH  27  37
BRANCH  25  39
ATOM     39  O   UNL     1      -4.433   9.642  18.849  0.00  0.00    -0.343 OA
ATOM     40  C   UNL     1      -4.773  10.289  17.596  0.00  0.00    +0.198 C 
ENDBRANCH  25  39
ENDBRANCH  22  23
BRANCH  22  41
ATOM     41  O   UNL     1      -3.673   8.075  23.020  0.00  0.00    -0.387 OA
ATOM     42  H   UNL     1      -4.027   7.902  22.144  0.00  0.00    +0.210 HD
ENDBRANCH  22  41
ENDBRANCH   1  22
TORSDOF 14
