REMARK VINA RESULT:    -4.326      2.066      4.675
REMARK INTER + INTRA:         -10.801
REMARK INTER:                  -7.292
REMARK INTRA:                  -3.509
REMARK UNBOUND:                -2.934
REMARK  Name = lig_assembled_72.pdb
REMARK  20 active torsions:
REMARK  status: ('A' for Active; 'I' for Inactive)
REMARK    1  A    between atoms: _2  and  _9
REMARK    2  A    between atoms: _4  and  _17
REMARK    3  A    between atoms: _5  and  _9
REMARK    4  A    between atoms: _5  and  _12
REMARK    5  A    between atoms: _6  and  _7
REMARK    6  A    between atoms: _6  and  _17
REMARK    7  A    between atoms: _9  and  _10
REMARK    8  A    between atoms: _9  and  _11
REMARK    9  A    between atoms: _13  and  _33
REMARK   10  A    between atoms: _15  and  _21
REMARK   11  A    between atoms: _16  and  _20
REMARK   12  A    between atoms: _20  and  _21
REMARK   13  A    between atoms: _23  and  _24
REMARK   14  A    between atoms: _25  and  _26
REMARK   15  A    between atoms: _27  and  _29
REMARK   16  A    between atoms: _29  and  _30
REMARK   17  A    between atoms: _29  and  _31
REMARK   18  A    between atoms: _31  and  _32
REMARK   19  A    between atoms: _31  and  _33
REMARK   20  A    between atoms: _34  and  _36
REMARK                            x       y       z     vdW  Elec       q    Type
REMARK                         _______ _______ _______ _____ _____    ______ ____
ROOT
ATOM      1  C   UNL     1      -2.281   9.972  27.649  0.00  0.00    +0.163 C 
ENDROOT
BRANCH   1   2
ATOM      2  O   UNL     1      -1.393  10.037  26.522  0.00  0.00    -0.388 OA
ATOM      3  H   UNL     1      -1.664  10.751  25.940  0.00  0.00    +0.210 HD
ENDBRANCH   1   2
BRANCH   1   4
ATOM      4  C   UNL     1      -3.077  11.281  27.798  0.00  0.00    +0.175 C 
BRANCH   4   5
ATOM      5  C   UNL     1      -4.445  11.053  28.458  0.00  0.00    +0.176 C 
ATOM      6  O   UNL     1      -5.472  11.375  27.480  0.00  0.00    -0.332 OA
ATOM      7  C   UNL     1      -6.852  11.115  27.902  0.00  0.00    +0.277 C 
ATOM      8  C   UNL     1      -7.155  11.838  29.237  0.00  0.00    +0.110 C 
ATOM      9  C   UNL     1      -6.072  11.552  30.298  0.00  0.00    +0.143 C 
ATOM     10  C   UNL     1      -4.676  11.854  29.753  0.00  0.00    +0.133 C 
BRANCH  10  11
ATOM     11  N   UNL     1      -3.648  11.496  30.743  0.00  0.00    -0.308 N 
ATOM     12  H   UNL     1      -3.518  10.516  30.954  0.00  0.00    +0.149 HD
ATOM     13  C   UNL     1      -2.875  12.380  31.380  0.00  0.00    +0.210 C 
ATOM     14  C   UNL     1      -3.116  13.866  31.055  0.00  0.00    +0.109 C 
ATOM     15  O   UNL     1      -2.012  12.049  32.193  0.00  0.00    -0.276 OA
ENDBRANCH  10  11
BRANCH   7  16
ATOM     16  C   UNL     1      -7.096   9.601  28.069  0.00  0.00    +0.414 C 
ATOM     17  O   UNL     1      -6.741   8.815  27.191  0.00  0.00    -0.240 OA
ATOM     18  O   UNL     1      -7.649   9.165  29.080  0.00  0.00    -0.240 OA
ENDBRANCH   7  16
BRANCH   9  19
ATOM     19  O   UNL     1      -6.309  12.354  31.456  0.00  0.00    -0.390 OA
ATOM     20  H   UNL     1      -5.660  13.061  31.495  0.00  0.00    +0.210 HD
ENDBRANCH   9  19
BRANCH   7  21
ATOM     21  O   UNL     1      -7.739  11.644  26.883  0.00  0.00    -0.343 OA
ATOM     22  C   UNL     1      -7.512  13.032  26.533  0.00  0.00    +0.198 C 
ENDBRANCH   7  21
ENDBRANCH   4   5
BRANCH   4  23
ATOM     23  O   UNL     1      -3.244  11.909  26.512  0.00  0.00    -0.387 OA
ATOM     24  H   UNL     1      -3.807  12.681  26.603  0.00  0.00    +0.210 HD
ENDBRANCH   4  23
ENDBRANCH   1   4
BRANCH   1  25
ATOM     25  C   UNL     1      -3.248   8.804  27.485  0.00  0.00    +0.141 C 
BRANCH  25  28
ATOM     26  C   UNL     1      -3.875   8.002  25.234  0.00  0.00    +0.401 C 
ATOM     27  O   UNL     1      -3.115   7.032  25.265  0.00  0.00    -0.226 OA
ATOM     28  N   UNL     1      -3.997   8.886  26.225  0.00  0.00    -0.279 N 
ATOM     29  H   UNL     1      -4.641   9.655  26.103  0.00  0.00    +0.152 HD
BRANCH  26  30
ATOM     30  O   UNL     1      -4.682   8.215  24.073  0.00  0.00    -0.444 OA
BRANCH  30  31
ATOM     31  C   UNL     1      -3.866   8.712  23.009  0.00  0.00    +0.292 C 
BRANCH  31  33
ATOM     32  N   UNL     1      -2.775  10.802  23.756  0.00  0.00    -0.131 NA
ATOM     33  C   UNL     1      -3.783  10.182  23.069  0.00  0.00    +0.120 A 
ATOM     34  C   UNL     1      -4.603  11.141  22.515  0.00  0.00    +0.137 A 
ATOM     35  N   UNL     1      -4.042  12.328  22.898  0.00  0.00    -0.244 N 
ATOM     36  N   UNL     1      -2.942  12.110  23.646  0.00  0.00    -0.065 NA
BRANCH  35  37
ATOM     37  C   UNL     1      -4.495  13.691  22.586  0.00  0.00    +0.083 C 
ATOM     38  C   UNL     1      -5.052  14.345  23.865  0.00  0.00    +0.038 C 
ATOM     39  C   UNL     1      -5.601  13.636  21.513  0.00  0.00    +0.038 C 
BRANCH  37  40
ATOM     40  C   UNL     1      -3.329  14.578  22.070  0.00  0.00    +0.185 C 
BRANCH  40  41
ATOM     41  O   UNL     1      -2.441  13.873  21.205  0.00  0.00    -0.393 OA
ATOM     42  H   UNL     1      -2.386  14.405  20.382  0.00  0.00    +0.209 HD
ENDBRANCH  40  41
ENDBRANCH  37  40
ENDBRANCH  35  37
ENDBRANCH  31  33
ENDBRANCH  30  31
ENDBRANCH  26  30
ENDBRANCH  25  28
ENDBRANCH   1  25
TORSDOF 16
