REMARK VINA RESULT:    -4.607      3.374      8.560
REMARK INTER + INTRA:         -11.536
REMARK INTER:                  -9.259
REMARK INTRA:                  -2.277
REMARK UNBOUND:                -2.754
REMARK  Name = lig_assembled_19.pdb
REMARK  20 active torsions:
REMARK  status: ('A' for Active; 'I' for Inactive)
REMARK    1  A    between atoms: _2  and  _9
REMARK    2  A    between atoms: _4  and  _18
REMARK    3  A    between atoms: _5  and  _11
REMARK    4  A    between atoms: _6  and  _7
REMARK    5  A    between atoms: _6  and  _18
REMARK    6  A    between atoms: _9  and  _10
REMARK    7  A    between atoms: _10  and  _13
REMARK    8  A    between atoms: _11  and  _13
REMARK    9  A    between atoms: _14  and  _34
REMARK   10  A    between atoms: _16  and  _22
REMARK   11  A    between atoms: _17  and  _21
REMARK   12  A    between atoms: _21  and  _22
REMARK   13  A    between atoms: _24  and  _25
REMARK   14  A    between atoms: _26  and  _27
REMARK   15  A    between atoms: _28  and  _30
REMARK   16  A    between atoms: _30  and  _31
REMARK   17  A    between atoms: _30  and  _32
REMARK   18  A    between atoms: _32  and  _33
REMARK   19  A    between atoms: _32  and  _34
REMARK   20  A    between atoms: _35  and  _37
REMARK                            x       y       z     vdW  Elec       q    Type
REMARK                         _______ _______ _______ _____ _____    ______ ____
ROOT
ATOM      1  C   UNL     1      -3.075  12.104  22.688  0.00  0.00    +0.163 C 
ENDROOT
BRANCH   1   2
ATOM      2  O   UNL     1      -3.005  12.899  23.883  0.00  0.00    -0.388 OA
ATOM      3  H   UNL     1      -2.348  13.590  23.770  0.00  0.00    +0.210 HD
ENDBRANCH   1   2
BRANCH   1   4
ATOM      4  C   UNL     1      -3.724  10.739  22.973  0.00  0.00    +0.175 C 
BRANCH   4   5
ATOM      5  C   UNL     1      -3.801  10.438  24.477  0.00  0.00    +0.176 C 
ATOM      6  O   UNL     1      -3.228   9.120  24.700  0.00  0.00    -0.332 OA
ATOM      7  C   UNL     1      -3.119   8.705  26.101  0.00  0.00    +0.277 C 
ATOM      8  C   UNL     1      -4.496   8.802  26.803  0.00  0.00    +0.110 C 
ATOM      9  C   UNL     1      -5.160  10.175  26.567  0.00  0.00    +0.143 C 
ATOM     10  C   UNL     1      -5.218  10.508  25.076  0.00  0.00    +0.133 C 
BRANCH  10  11
ATOM     11  N   UNL     1      -5.773  11.856  24.870  0.00  0.00    -0.308 N 
ATOM     12  H   UNL     1      -5.346  12.623  25.371  0.00  0.00    +0.149 HD
ATOM     13  C   UNL     1      -6.802  12.131  24.065  0.00  0.00    +0.210 C 
ATOM     14  C   UNL     1      -7.447  10.937  23.337  0.00  0.00    +0.109 C 
ATOM     15  O   UNL     1      -7.236  13.272  23.901  0.00  0.00    -0.276 OA
ENDBRANCH  10  11
BRANCH   7  16
ATOM     16  C   UNL     1      -2.095   9.580  26.853  0.00  0.00    +0.414 C 
ATOM     17  O   UNL     1      -2.305   9.918  28.018  0.00  0.00    -0.240 OA
ATOM     18  O   UNL     1      -1.060   9.948  26.296  0.00  0.00    -0.240 OA
ENDBRANCH   7  16
BRANCH   9  19
ATOM     19  O   UNL     1      -6.485  10.168  27.100  0.00  0.00    -0.390 OA
ATOM     20  H   UNL     1      -7.044  10.748  26.578  0.00  0.00    +0.210 HD
ENDBRANCH   9  19
BRANCH   7  21
ATOM     21  O   UNL     1      -2.690   7.319  26.127  0.00  0.00    -0.343 OA
ATOM     22  C   UNL     1      -3.650   6.371  25.596  0.00  0.00    +0.198 C 
ENDBRANCH   7  21
ENDBRANCH   4   5
BRANCH   4  23
ATOM     23  O   UNL     1      -3.000   9.693  22.294  0.00  0.00    -0.387 OA
ATOM     24  H   UNL     1      -2.200  10.057  21.907  0.00  0.00    +0.210 HD
ENDBRANCH   4  23
ENDBRANCH   1   4
BRANCH   1  25
ATOM     25  C   UNL     1      -3.879  12.837  21.619  0.00  0.00    +0.141 C 
BRANCH  25  28
ATOM     26  C   UNL     1      -5.752  12.172  20.151  0.00  0.00    +0.401 C 
ATOM     27  O   UNL     1      -6.380  13.220  20.318  0.00  0.00    -0.226 OA
ATOM     28  N   UNL     1      -4.578  11.906  20.725  0.00  0.00    -0.279 N 
ATOM     29  H   UNL     1      -4.145  11.014  20.533  0.00  0.00    +0.152 HD
BRANCH  26  30
ATOM     30  O   UNL     1      -6.299  11.164  19.297  0.00  0.00    -0.444 OA
BRANCH  30  31
ATOM     31  C   UNL     1      -5.626   9.924  19.529  0.00  0.00    +0.292 C 
BRANCH  31  33
ATOM     32  N   UNL     1      -4.795   8.055  18.129  0.00  0.00    -0.131 NA
ATOM     33  C   UNL     1      -5.084   9.389  18.267  0.00  0.00    +0.120 A 
ATOM     34  C   UNL     1      -4.785  10.036  17.089  0.00  0.00    +0.137 A 
ATOM     35  N   UNL     1      -4.309   9.046  16.284  0.00  0.00    -0.248 N 
ATOM     36  N   UNL     1      -4.321   7.857  16.906  0.00  0.00    -0.065 NA
BRANCH  35  37
ATOM     37  C   UNL     1      -3.844   9.159  14.918  0.00  0.00    +0.186 C 
BRANCH  37  38
ATOM     38  C   UNL     1      -2.462   9.799  14.842  0.00  0.00    +0.255 C 
BRANCH  38  39
ATOM     39  O   UNL     1      -1.556   9.042  14.014  0.00  0.00    -0.463 OA
BRANCH  39  40
ATOM     40  C   UNL     1      -1.406   7.731  14.339  0.00  0.00    +0.304 C 
ATOM     41  O   UNL     1      -1.803   6.793  13.662  0.00  0.00    -0.251 OA
ATOM     42  C   UNL     1      -0.657   7.582  15.628  0.00  0.00    +0.136 C 
ENDBRANCH  39  40
ENDBRANCH  38  39
ENDBRANCH  37  38
ENDBRANCH  35  37
ENDBRANCH  31  33
ENDBRANCH  30  31
ENDBRANCH  26  30
ENDBRANCH  25  28
ENDBRANCH   1  25
TORSDOF 17
