REMARK VINA RESULT:    -4.833      2.966      5.486
REMARK INTER + INTRA:         -11.527
REMARK INTER:                  -8.499
REMARK INTRA:                  -3.028
REMARK UNBOUND:                -2.598
REMARK  Name = lig_assembled_67.pdb
REMARK  18 active torsions:
REMARK  status: ('A' for Active; 'I' for Inactive)
REMARK    1  A    between atoms: _2  and  _9
REMARK    2  A    between atoms: _4  and  _19
REMARK    3  A    between atoms: _6  and  _7
REMARK    4  A    between atoms: _6  and  _19
REMARK    5  A    between atoms: _9  and  _10
REMARK    6  A    between atoms: _10  and  _11
REMARK    7  A    between atoms: _15  and  _35
REMARK    8  A    between atoms: _17  and  _23
REMARK    9  A    between atoms: _18  and  _22
REMARK   10  A    between atoms: _22  and  _23
REMARK   11  A    between atoms: _25  and  _26
REMARK   12  A    between atoms: _27  and  _28
REMARK   13  A    between atoms: _29  and  _31
REMARK   14  A    between atoms: _31  and  _32
REMARK   15  A    between atoms: _31  and  _33
REMARK   16  A    between atoms: _33  and  _34
REMARK   17  A    between atoms: _33  and  _35
REMARK   18  A    between atoms: _36  and  _38
REMARK                            x       y       z     vdW  Elec       q    Type
REMARK                         _______ _______ _______ _____ _____    ______ ____
ROOT
ATOM      1  C   UNL     1      -2.389   9.669  26.986  0.00  0.00    +0.163 C 
ENDROOT
BRANCH   1   2
ATOM      2  O   UNL     1      -1.265   9.872  26.114  0.00  0.00    -0.388 OA
ATOM      3  H   UNL     1      -0.515   9.365  26.434  0.00  0.00    +0.210 HD
ENDBRANCH   1   2
BRANCH   1   4
ATOM      4  C   UNL     1      -3.369   8.645  26.389  0.00  0.00    +0.175 C 
BRANCH   4   5
ATOM      5  C   UNL     1      -4.234   9.253  25.275  0.00  0.00    +0.176 C 
ATOM      6  O   UNL     1      -3.412   9.360  24.079  0.00  0.00    -0.332 OA
ATOM      7  C   UNL     1      -4.105   9.827  22.874  0.00  0.00    +0.277 C 
ATOM      8  C   UNL     1      -4.812  11.177  23.145  0.00  0.00    +0.110 C 
ATOM      9  C   UNL     1      -5.673  11.122  24.425  0.00  0.00    +0.143 C 
ATOM     10  C   UNL     1      -4.855  10.621  25.615  0.00  0.00    +0.133 C 
BRANCH  10  11
ATOM     11  N   UNL     1      -5.707  10.490  26.808  0.00  0.00    -0.308 N 
ATOM     12  H   UNL     1      -6.393   9.749  26.818  0.00  0.00    +0.149 HD
ATOM     13  C   UNL     1      -5.632  11.287  27.877  0.00  0.00    +0.210 C 
ATOM     14  C   UNL     1      -4.594  12.423  27.820  0.00  0.00    +0.109 C 
ATOM     15  O   UNL     1      -6.349  11.145  28.868  0.00  0.00    -0.276 OA
ENDBRANCH  10  11
BRANCH   7  16
ATOM     16  C   UNL     1      -5.142   8.787  22.402  0.00  0.00    +0.414 C 
ATOM     17  O   UNL     1      -4.955   7.588  22.606  0.00  0.00    -0.240 OA
ATOM     18  O   UNL     1      -6.164   9.146  21.817  0.00  0.00    -0.240 OA
ENDBRANCH   7  16
BRANCH   9  19
ATOM     19  O   UNL     1      -6.183  12.423  24.719  0.00  0.00    -0.390 OA
ATOM     20  H   UNL     1      -6.244  12.934  23.909  0.00  0.00    +0.210 HD
ENDBRANCH   9  19
BRANCH   7  21
ATOM     21  O   UNL     1      -3.111  10.031  21.837  0.00  0.00    -0.343 OA
ATOM     22  C   UNL     1      -3.099  11.359  21.254  0.00  0.00    +0.198 C 
ENDBRANCH   7  21
ENDBRANCH   4   5
BRANCH   4  23
ATOM     23  O   UNL     1      -4.208   8.098  27.425  0.00  0.00    -0.387 OA
ATOM     24  H   UNL     1      -3.920   7.206  27.634  0.00  0.00    +0.210 HD
ENDBRANCH   4  23
ENDBRANCH   1   4
BRANCH   1  25
ATOM     25  C   UNL     1      -1.910   9.181  28.349  0.00  0.00    +0.141 C 
BRANCH  25  28
ATOM     26  C   UNL     1      -3.419   9.508  30.278  0.00  0.00    +0.401 C 
ATOM     27  O   UNL     1      -3.907   8.377  30.209  0.00  0.00    -0.226 OA
ATOM     28  N   UNL     1      -2.485   9.970  29.446  0.00  0.00    -0.279 N 
ATOM     29  H   UNL     1      -2.155  10.915  29.577  0.00  0.00    +0.152 HD
BRANCH  26  30
ATOM     30  O   UNL     1      -3.872  10.397  31.302  0.00  0.00    -0.444 OA
BRANCH  30  31
ATOM     31  C   UNL     1      -2.747  10.906  32.024  0.00  0.00    +0.292 C 
BRANCH  31  33
ATOM     32  N   UNL     1      -1.714  13.103  32.504  0.00  0.00    -0.131 NA
ATOM     33  C   UNL     1      -2.804  12.378  32.097  0.00  0.00    +0.120 A 
ATOM     34  C   UNL     1      -3.836  13.243  31.811  0.00  0.00    +0.137 A 
ATOM     35  N   UNL     1      -3.313  14.474  32.065  0.00  0.00    -0.251 N 
ATOM     36  N   UNL     1      -2.040  14.388  32.483  0.00  0.00    -0.065 NA
BRANCH  35  37
ATOM     37  C   UNL     1      -3.951  15.764  31.923  0.00  0.00    +0.150 C 
BRANCH  37  38
ATOM     38  C   UNL     1      -4.523  16.014  30.529  0.00  0.00    +0.084 C 
BRANCH  38  39
ATOM     39  C   UNL     1      -6.037  15.870  30.487  0.00  0.00    +0.252 C 
ATOM     40  O   UNL     1      -6.610  16.908  29.683  0.00  0.00    -0.349 OA
ATOM     41  C   UNL     1      -7.794  16.304  29.168  0.00  0.00    +0.191 C 
ATOM     42  C   UNL     1      -7.381  14.873  28.938  0.00  0.00    +0.191 C 
ATOM     43  O   UNL     1      -6.403  14.598  29.943  0.00  0.00    -0.349 OA
ENDBRANCH  38  39
ENDBRANCH  37  38
ENDBRANCH  35  37
ENDBRANCH  31  33
ENDBRANCH  30  31
ENDBRANCH  26  30
ENDBRANCH  25  28
ENDBRANCH   1  25
TORSDOF 16
