REMARK VINA RESULT:    -5.524      5.788     11.788
REMARK INTER + INTRA:         -12.595
REMARK INTER:                  -9.992
REMARK INTRA:                  -2.604
REMARK UNBOUND:                -2.389
REMARK  Name = lig_assembled_92.pdb
REMARK  18 active torsions:
REMARK  status: ('A' for Active; 'I' for Inactive)
REMARK    1  A    between atoms: _2  and  _11
REMARK    2  A    between atoms: _3  and  _46
REMARK    3  A    between atoms: _6  and  _25
REMARK    4  A    between atoms: _8  and  _9
REMARK    5  A    between atoms: _8  and  _25
REMARK    6  A    between atoms: _14  and  _46
REMARK    7  A    between atoms: _21  and  _41
REMARK    8  A    between atoms: _23  and  _29
REMARK    9  A    between atoms: _24  and  _28
REMARK   10  A    between atoms: _28  and  _29
REMARK   11  A    between atoms: _31  and  _32
REMARK   12  A    between atoms: _33  and  _34
REMARK   13  A    between atoms: _35  and  _37
REMARK   14  A    between atoms: _37  and  _38
REMARK   15  A    between atoms: _37  and  _39
REMARK   16  A    between atoms: _39  and  _40
REMARK   17  A    between atoms: _39  and  _41
REMARK   18  A    between atoms: _42  and  _44
REMARK                            x       y       z     vdW  Elec       q    Type
REMARK                         _______ _______ _______ _____ _____    ______ ____
ROOT
ATOM      1  C   UNL     1      -5.318  13.734  22.362  0.00  0.00    +0.401 C 
ATOM      2  O   UNL     1      -4.442  14.449  21.870  0.00  0.00    -0.226 OA
ATOM      3  N   UNL     1      -5.208  13.128  23.545  0.00  0.00    -0.279 N 
ATOM      4  H   UNL     1      -5.985  12.570  23.869  0.00  0.00    +0.152 HD
ENDROOT
BRANCH   3   5
ATOM      5  C   UNL     1      -4.021  13.228  24.404  0.00  0.00    +0.141 C 
BRANCH   5   6
ATOM      6  C   UNL     1      -3.031  12.098  24.138  0.00  0.00    +0.163 C 
BRANCH   6   7
ATOM      7  O   UNL     1      -2.103  11.991  25.229  0.00  0.00    -0.388 OA
ATOM      8  H   UNL     1      -1.409  12.647  25.126  0.00  0.00    +0.210 HD
ENDBRANCH   6   7
BRANCH   6   9
ATOM      9  C   UNL     1      -3.797  10.780  23.935  0.00  0.00    +0.175 C 
BRANCH   9  10
ATOM     10  C   UNL     1      -3.928   9.981  25.241  0.00  0.00    +0.176 C 
ATOM     11  O   UNL     1      -2.871   8.982  25.261  0.00  0.00    -0.332 OA
ATOM     12  C   UNL     1      -2.773   8.189  26.490  0.00  0.00    +0.277 C 
ATOM     13  C   UNL     1      -4.132   7.520  26.812  0.00  0.00    +0.110 C 
ATOM     14  C   UNL     1      -5.292   8.537  26.771  0.00  0.00    +0.143 C 
ATOM     15  C   UNL     1      -5.297   9.309  25.451  0.00  0.00    +0.133 C 
BRANCH  15  16
ATOM     16  N   UNL     1      -6.352  10.335  25.458  0.00  0.00    -0.308 N 
ATOM     17  H   UNL     1      -6.323  11.037  26.185  0.00  0.00    +0.149 HD
ATOM     18  C   UNL     1      -7.346  10.400  24.568  0.00  0.00    +0.210 C 
ATOM     19  C   UNL     1      -7.378   9.301  23.489  0.00  0.00    +0.109 C 
ATOM     20  O   UNL     1      -8.207  11.279  24.590  0.00  0.00    -0.276 OA
ENDBRANCH  15  16
BRANCH  12  21
ATOM     21  C   UNL     1      -2.339   9.072  27.678  0.00  0.00    +0.414 C 
ATOM     22  O   UNL     1      -1.636  10.064  27.489  0.00  0.00    -0.240 OA
ATOM     23  O   UNL     1      -2.691   8.792  28.825  0.00  0.00    -0.240 OA
ENDBRANCH  12  21
BRANCH  14  24
ATOM     24  O   UNL     1      -6.537   7.855  26.922  0.00  0.00    -0.390 OA
ATOM     25  H   UNL     1      -6.496   7.009  26.471  0.00  0.00    +0.210 HD
ENDBRANCH  14  24
BRANCH  12  26
ATOM     26  O   UNL     1      -1.790   7.144  26.272  0.00  0.00    -0.343 OA
ATOM     27  C   UNL     1      -1.937   5.978  27.121  0.00  0.00    +0.198 C 
ENDBRANCH  12  26
ENDBRANCH   9  10
BRANCH   9  28
ATOM     28  O   UNL     1      -3.150   9.979  22.926  0.00  0.00    -0.387 OA
ATOM     29  H   UNL     1      -3.767   9.807  22.210  0.00  0.00    +0.210 HD
ENDBRANCH   9  28
ENDBRANCH   6   9
ENDBRANCH   5   6
ENDBRANCH   3   5
BRANCH   1  30
ATOM     30  O   UNL     1      -6.536  13.531  21.641  0.00  0.00    -0.444 OA
BRANCH  30  31
ATOM     31  C   UNL     1      -6.611  12.172  21.203  0.00  0.00    +0.292 C 
BRANCH  31  33
ATOM     32  N   UNL     1      -7.652  12.179  18.953  0.00  0.00    -0.131 NA
ATOM     33  C   UNL     1      -6.534  12.101  19.732  0.00  0.00    +0.121 A 
ATOM     34  C   UNL     1      -5.431  11.966  18.921  0.00  0.00    +0.143 A 
ATOM     35  N   UNL     1      -5.927  11.997  17.638  0.00  0.00    -0.220 N 
ATOM     36  N   UNL     1      -7.276  12.109  17.682  0.00  0.00    -0.060 NA
BRANCH  35  37
ATOM     37  C   UNL     1      -5.208  11.962  16.416  0.00  0.00    +0.067 A 
ATOM     38  C   UNL     1      -3.837  11.662  16.407  0.00  0.00    +0.030 A 
ATOM     39  C   UNL     1      -3.121  11.686  15.211  0.00  0.00    +0.031 A 
ATOM     40  C   UNL     1      -3.773  11.999  14.017  0.00  0.00    +0.109 A 
ATOM     41  C   UNL     1      -5.140  12.290  14.008  0.00  0.00    +0.031 A 
ATOM     42  C   UNL     1      -5.860  12.262  15.208  0.00  0.00    +0.030 A 
BRANCH  40  43
ATOM     43  S   UNL     1      -2.803  12.170  12.543  0.00  0.00    +0.074 S 
ATOM     44  O   UNL     1      -2.027  10.954  12.387  0.00  0.00    -0.150 OA
ATOM     45  O   UNL     1      -3.662  12.623  11.475  0.00  0.00    -0.150 OA
BRANCH  43  46
ATOM     46  N   UNL     1      -1.675  13.359  12.950  0.00  0.00    -0.194 N 
ATOM     47  H   UNL     1      -0.785  13.047  12.571  0.00  0.00    +0.176 HD
ATOM     48  C   UNL     1      -2.063  14.637  12.496  0.00  0.00    +0.177 A 
ATOM     49  S   UNL     1      -1.472  15.318  11.044  0.00  0.00    -0.059 S 
ATOM     50  C   UNL     1      -2.316  16.767  11.409  0.00  0.00    +0.068 A 
ATOM     51  C   UNL     1      -2.919  16.649  12.644  0.00  0.00    +0.120 A 
ATOM     52  N   UNL     1      -2.799  15.413  13.251  0.00  0.00    -0.232 NA
ENDBRANCH  43  46
ENDBRANCH  40  43
ENDBRANCH  35  37
ENDBRANCH  31  33
ENDBRANCH  30  31
ENDBRANCH   1  30
TORSDOF 16
