REMARK VINA RESULT:    -5.568      4.094      9.586
REMARK INTER + INTRA:         -11.451
REMARK INTER:                  -8.515
REMARK INTRA:                  -2.936
REMARK UNBOUND:                -1.813
REMARK  Name = lig_assembled_40.pdb
REMARK  17 active torsions:
REMARK  status: ('A' for Active; 'I' for Inactive)
REMARK    1  A    between atoms: _2  and  _9
REMARK    2  A    between atoms: _4  and  _19
REMARK    3  A    between atoms: _6  and  _7
REMARK    4  A    between atoms: _6  and  _19
REMARK    5  A    between atoms: _12  and  _13
REMARK    6  A    between atoms: _15  and  _35
REMARK    7  A    between atoms: _17  and  _23
REMARK    8  A    between atoms: _18  and  _22
REMARK    9  A    between atoms: _22  and  _23
REMARK   10  A    between atoms: _25  and  _26
REMARK   11  A    between atoms: _27  and  _28
REMARK   12  A    between atoms: _29  and  _31
REMARK   13  A    between atoms: _31  and  _32
REMARK   14  A    between atoms: _31  and  _33
REMARK   15  A    between atoms: _33  and  _34
REMARK   16  A    between atoms: _33  and  _35
REMARK   17  A    between atoms: _36  and  _38
REMARK                            x       y       z     vdW  Elec       q    Type
REMARK                         _______ _______ _______ _____ _____    ______ ____
ROOT
ATOM      1  C   UNL     1      -2.975  10.937  22.753  0.00  0.00    +0.163 C 
ENDROOT
BRANCH   1   2
ATOM      2  O   UNL     1      -2.822  11.800  21.615  0.00  0.00    -0.388 OA
ATOM      3  H   UNL     1      -3.280  11.422  20.861  0.00  0.00    +0.210 HD
ENDBRANCH   1   2
BRANCH   1   4
ATOM      4  C   UNL     1      -4.093   9.931  22.498  0.00  0.00    +0.141 C 
BRANCH   4   7
ATOM      5  C   UNL     1      -4.976   8.512  24.318  0.00  0.00    +0.401 C 
ATOM      6  O   UNL     1      -6.001   9.181  24.470  0.00  0.00    -0.226 OA
ATOM      7  N   UNL     1      -4.028   8.793  23.424  0.00  0.00    -0.279 N 
ATOM      8  H   UNL     1      -3.218   8.190  23.381  0.00  0.00    +0.152 HD
BRANCH   5   9
ATOM      9  O   UNL     1      -4.769   7.362  25.142  0.00  0.00    -0.444 OA
BRANCH   9  10
ATOM     10  C   UNL     1      -3.368   7.170  25.352  0.00  0.00    +0.292 C 
BRANCH  10  12
ATOM     11  N   UNL     1      -1.924   8.694  26.662  0.00  0.00    -0.131 NA
ATOM     12  C   UNL     1      -2.948   7.795  26.621  0.00  0.00    +0.121 A 
ATOM     13  C   UNL     1      -3.455   7.633  27.888  0.00  0.00    +0.143 A 
ATOM     14  N   UNL     1      -2.722   8.488  28.680  0.00  0.00    -0.220 N 
ATOM     15  N   UNL     1      -1.784   9.105  27.916  0.00  0.00    -0.060 NA
BRANCH  14  16
ATOM     16  C   UNL     1      -2.882   8.772  30.060  0.00  0.00    +0.067 A 
ATOM     17  C   UNL     1      -3.201   7.757  30.969  0.00  0.00    +0.028 A 
ATOM     18  C   UNL     1      -3.425   8.064  32.315  0.00  0.00    +0.005 A 
ATOM     19  C   UNL     1      -3.333   9.383  32.769  0.00  0.00    -0.050 A 
ATOM     20  C   UNL     1      -2.978  10.392  31.865  0.00  0.00    +0.005 A 
ATOM     21  C   UNL     1      -3.618   9.723  34.202  0.00  0.00    +0.044 C 
ATOM     22  C   UNL     1      -2.753  10.092  30.519  0.00  0.00    +0.028 A 
ENDBRANCH  14  16
ENDBRANCH  10  12
ENDBRANCH   9  10
ENDBRANCH   5   9
ENDBRANCH   4   7
ENDBRANCH   1   4
BRANCH   1  23
ATOM     23  C   UNL     1      -3.293  11.748  24.021  0.00  0.00    +0.175 C 
BRANCH  23  24
ATOM     24  C   UNL     1      -4.514  12.661  23.832  0.00  0.00    +0.176 C 
ATOM     25  O   UNL     1      -4.073  13.857  23.132  0.00  0.00    -0.332 OA
ATOM     26  C   UNL     1      -5.131  14.804  22.768  0.00  0.00    +0.277 C 
ATOM     27  C   UNL     1      -5.954  15.202  24.017  0.00  0.00    +0.110 C 
ATOM     28  C   UNL     1      -6.418  13.964  24.812  0.00  0.00    +0.143 C 
ATOM     29  C   UNL     1      -5.238  13.046  25.135  0.00  0.00    +0.133 C 
BRANCH  29  30
ATOM     30  N   UNL     1      -5.705  11.828  25.816  0.00  0.00    -0.308 N 
ATOM     31  H   UNL     1      -6.429  11.284  25.367  0.00  0.00    +0.149 HD
ATOM     32  C   UNL     1      -5.234  11.393  26.988  0.00  0.00    +0.210 C 
ATOM     33  C   UNL     1      -4.149  12.258  27.659  0.00  0.00    +0.109 C 
ATOM     34  O   UNL     1      -5.633  10.361  27.528  0.00  0.00    -0.276 OA
ENDBRANCH  29  30
BRANCH  26  35
ATOM     35  C   UNL     1      -6.069  14.195  21.705  0.00  0.00    +0.414 C 
ATOM     36  O   UNL     1      -5.684  13.264  20.999  0.00  0.00    -0.240 OA
ATOM     37  O   UNL     1      -7.210  14.633  21.555  0.00  0.00    -0.240 OA
ENDBRANCH  26  35
BRANCH  28  38
ATOM     38  O   UNL     1      -7.039  14.377  26.030  0.00  0.00    -0.390 OA
ATOM     39  H   UNL     1      -7.108  15.335  26.046  0.00  0.00    +0.210 HD
ENDBRANCH  28  38
BRANCH  26  40
ATOM     40  O   UNL     1      -4.501  15.998  22.236  0.00  0.00    -0.343 OA
ATOM     41  C   UNL     1      -5.142  17.245  22.605  0.00  0.00    +0.198 C 
ENDBRANCH  26  40
ENDBRANCH  23  24
BRANCH  23  42
ATOM     42  O   UNL     1      -2.145  12.528  24.412  0.00  0.00    -0.387 OA
ATOM     43  H   UNL     1      -2.437  13.316  24.877  0.00  0.00    +0.210 HD
ENDBRANCH  23  42
ENDBRANCH   1  23
TORSDOF 14
