REMARK VINA RESULT:    -5.083      2.974      6.438
REMARK INTER + INTRA:         -12.862
REMARK INTER:                  -8.575
REMARK INTRA:                  -4.287
REMARK UNBOUND:                -3.320
REMARK  Name = lig_assembled_16.pdb
REMARK  19 active torsions:
REMARK  status: ('A' for Active; 'I' for Inactive)
REMARK    1  A    between atoms: _2  and  _9
REMARK    2  A    between atoms: _4  and  _22
REMARK    3  A    between atoms: _6  and  _7
REMARK    4  A    between atoms: _6  and  _22
REMARK    5  A    between atoms: _9  and  _10
REMARK    6  A    between atoms: _13  and  _14
REMARK    7  A    between atoms: _14  and  _16
REMARK    8  A    between atoms: _18  and  _38
REMARK    9  A    between atoms: _20  and  _26
REMARK   10  A    between atoms: _21  and  _25
REMARK   11  A    between atoms: _25  and  _26
REMARK   12  A    between atoms: _28  and  _29
REMARK   13  A    between atoms: _30  and  _31
REMARK   14  A    between atoms: _32  and  _34
REMARK   15  A    between atoms: _34  and  _35
REMARK   16  A    between atoms: _34  and  _36
REMARK   17  A    between atoms: _36  and  _37
REMARK   18  A    between atoms: _36  and  _38
REMARK   19  A    between atoms: _39  and  _41
REMARK                            x       y       z     vdW  Elec       q    Type
REMARK                         _______ _______ _______ _____ _____    ______ ____
ROOT
ATOM      1  C   UNL     1      -5.939   6.988  20.748  0.00  0.00    +0.163 C 
ENDROOT
BRANCH   1   2
ATOM      2  O   UNL     1      -5.417   6.303  19.598  0.00  0.00    -0.388 OA
ATOM      3  H   UNL     1      -4.508   6.042  19.765  0.00  0.00    +0.210 HD
ENDBRANCH   1   2
BRANCH   1   4
ATOM      4  C   UNL     1      -7.125   7.889  20.361  0.00  0.00    +0.175 C 
BRANCH   4   5
ATOM      5  C   UNL     1      -6.664   9.204  19.716  0.00  0.00    +0.176 C 
ATOM      6  O   UNL     1      -6.234   8.910  18.358  0.00  0.00    -0.332 OA
ATOM      7  C   UNL     1      -5.857  10.071  17.547  0.00  0.00    +0.277 C 
ATOM      8  C   UNL     1      -4.772  10.906  18.270  0.00  0.00    +0.110 C 
ATOM      9  C   UNL     1      -5.170  11.217  19.728  0.00  0.00    +0.143 C 
ATOM     10  C   UNL     1      -5.547   9.939  20.479  0.00  0.00    +0.133 C 
BRANCH  10  11
ATOM     11  N   UNL     1      -6.007  10.257  21.839  0.00  0.00    -0.308 N 
ATOM     12  H   UNL     1      -6.916  10.687  21.941  0.00  0.00    +0.149 HD
ATOM     13  C   UNL     1      -5.303  10.015  22.948  0.00  0.00    +0.210 C 
ATOM     14  C   UNL     1      -3.912   9.383  22.758  0.00  0.00    +0.109 C 
ATOM     15  O   UNL     1      -5.721  10.279  24.077  0.00  0.00    -0.276 OA
ENDBRANCH  10  11
BRANCH   7  16
ATOM     16  C   UNL     1      -7.085  10.959  17.259  0.00  0.00    +0.414 C 
ATOM     17  O   UNL     1      -6.956  12.178  17.149  0.00  0.00    -0.240 OA
ATOM     18  O   UNL     1      -8.203  10.458  17.136  0.00  0.00    -0.240 OA
ENDBRANCH   7  16
BRANCH   7  19
ATOM     19  O   UNL     1      -5.302   9.585  16.298  0.00  0.00    -0.343 OA
ATOM     20  C   UNL     1      -3.944  10.011  16.024  0.00  0.00    +0.198 C 
ENDBRANCH   7  19
BRANCH   9  21
ATOM     21  O   UNL     1      -4.083  11.854  20.400  0.00  0.00    -0.390 OA
ATOM     22  H   UNL     1      -4.119  11.647  21.336  0.00  0.00    +0.210 HD
ENDBRANCH   9  21
ENDBRANCH   4   5
BRANCH   4  23
ATOM     23  O   UNL     1      -7.940   8.161  21.518  0.00  0.00    -0.387 OA
ATOM     24  H   UNL     1      -7.886   7.423  22.130  0.00  0.00    +0.210 HD
ENDBRANCH   4  23
ENDBRANCH   1   4
BRANCH   1  25
ATOM     25  C   UNL     1      -6.389   5.977  21.798  0.00  0.00    +0.141 C 
BRANCH  25  28
ATOM     26  C   UNL     1      -5.118   6.256  23.898  0.00  0.00    +0.401 C 
ATOM     27  O   UNL     1      -4.157   5.583  23.517  0.00  0.00    -0.226 OA
ATOM     28  N   UNL     1      -6.206   6.487  23.163  0.00  0.00    -0.279 N 
ATOM     29  H   UNL     1      -6.946   7.043  23.567  0.00  0.00    +0.152 HD
BRANCH  26  30
ATOM     30  O   UNL     1      -5.086   6.831  25.207  0.00  0.00    -0.444 OA
BRANCH  30  31
ATOM     31  C   UNL     1      -3.830   6.542  25.826  0.00  0.00    +0.292 C 
BRANCH  31  33
ATOM     32  N   UNL     1      -1.838   7.923  26.335  0.00  0.00    -0.131 NA
ATOM     33  C   UNL     1      -3.202   7.783  26.310  0.00  0.00    +0.120 A 
ATOM     34  C   UNL     1      -3.782   8.948  26.762  0.00  0.00    +0.137 A 
ATOM     35  N   UNL     1      -2.723   9.784  26.953  0.00  0.00    -0.247 N 
ATOM     36  N   UNL     1      -1.554   9.152  26.748  0.00  0.00    -0.065 NA
BRANCH  35  37
ATOM     37  C   UNL     1      -2.750  11.190  27.304  0.00  0.00    +0.180 C 
BRANCH  37  38
ATOM     38  C   UNL     1      -3.324  12.026  26.182  0.00  0.00    -0.026 A 
ATOM     39  C   UNL     1      -2.612  12.205  24.987  0.00  0.00    +0.006 A 
ATOM     40  C   UNL     1      -3.164  12.948  23.939  0.00  0.00    +0.015 A 
ATOM     41  C   UNL     1      -4.426  13.531  24.074  0.00  0.00    +0.059 A 
ATOM     42  C   UNL     1      -5.138  13.376  25.273  0.00  0.00    +0.015 A 
ATOM     43  C   UNL     1      -4.580  12.638  26.322  0.00  0.00    +0.006 A 
BRANCH  41  44
ATOM     44  C   UNL     1      -4.996  14.247  22.903  0.00  0.00    +0.337 C 
ATOM     45  O   UNL     1      -4.746  15.417  22.664  0.00  0.00    -0.245 OA
BRANCH  44  46
ATOM     46  O   UNL     1      -5.834  13.504  22.156  0.00  0.00    -0.477 OA
ATOM     47  H   UNL     1      -5.543  12.589  21.990  0.00  0.00    +0.295 HD
ENDBRANCH  44  46
ENDBRANCH  41  44
ENDBRANCH  37  38
ENDBRANCH  35  37
ENDBRANCH  31  33
ENDBRANCH  30  31
ENDBRANCH  26  30
ENDBRANCH  25  28
ENDBRANCH   1  25
TORSDOF 17
