REMARK VINA RESULT:    -4.591      4.829     11.611
REMARK INTER + INTRA:         -10.327
REMARK INTER:                  -7.946
REMARK INTRA:                  -2.381
REMARK UNBOUND:                -2.381
REMARK  Name = lig_assembled_7.pdb
REMARK  19 active torsions:
REMARK  status: ('A' for Active; 'I' for Inactive)
REMARK    1  A    between atoms: _2  and  _9
REMARK    2  A    between atoms: _4  and  _21
REMARK    3  A    between atoms: _5  and  _16
REMARK    4  A    between atoms: _6  and  _7
REMARK    5  A    between atoms: _6  and  _21
REMARK    6  A    between atoms: _10  and  _11
REMARK    7  A    between atoms: _13  and  _14
REMARK    8  A    between atoms: _17  and  _37
REMARK    9  A    between atoms: _19  and  _25
REMARK   10  A    between atoms: _20  and  _24
REMARK   11  A    between atoms: _24  and  _25
REMARK   12  A    between atoms: _27  and  _28
REMARK   13  A    between atoms: _29  and  _30
REMARK   14  A    between atoms: _31  and  _33
REMARK   15  A    between atoms: _33  and  _34
REMARK   16  A    between atoms: _33  and  _35
REMARK   17  A    between atoms: _35  and  _36
REMARK   18  A    between atoms: _35  and  _37
REMARK   19  A    between atoms: _38  and  _40
REMARK                            x       y       z     vdW  Elec       q    Type
REMARK                         _______ _______ _______ _____ _____    ______ ____
ROOT
ATOM      1  C   UNL     1      -7.274  11.951  15.309  0.00  0.00    +0.163 C 
ENDROOT
BRANCH   1   2
ATOM      2  O   UNL     1      -6.549  13.185  15.441  0.00  0.00    -0.388 OA
ATOM      3  H   UNL     1      -6.965  13.861  14.901  0.00  0.00    +0.210 HD
ENDBRANCH   1   2
BRANCH   1   4
ATOM      4  C   UNL     1      -8.383  11.883  16.354  0.00  0.00    +0.141 C 
BRANCH   4   7
ATOM      5  C   UNL     1      -7.850  11.259  18.685  0.00  0.00    +0.401 C 
ATOM      6  O   UNL     1      -8.250  10.099  18.565  0.00  0.00    -0.226 OA
ATOM      7  N   UNL     1      -7.880  12.163  17.705  0.00  0.00    -0.279 N 
ATOM      8  H   UNL     1      -7.538  13.093  17.903  0.00  0.00    +0.152 HD
BRANCH   5   9
ATOM      9  O   UNL     1      -7.322  11.685  19.943  0.00  0.00    -0.444 OA
BRANCH   9  10
ATOM     10  C   UNL     1      -6.010  12.222  19.753  0.00  0.00    +0.292 C 
BRANCH  10  12
ATOM     11  N   UNL     1      -3.887  11.166  20.429  0.00  0.00    -0.131 NA
ATOM     12  C   UNL     1      -5.089  11.698  20.779  0.00  0.00    +0.121 A 
ATOM     13  C   UNL     1      -5.217  11.643  22.153  0.00  0.00    +0.143 A 
ATOM     14  N   UNL     1      -4.073  11.017  22.602  0.00  0.00    -0.219 N 
ATOM     15  N   UNL     1      -3.269  10.784  21.535  0.00  0.00    -0.060 NA
BRANCH  14  16
ATOM     16  C   UNL     1      -3.697  10.647  23.935  0.00  0.00    +0.073 A 
ATOM     17  C   UNL     1      -3.058  11.609  24.774  0.00  0.00    -0.024 A 
ATOM     18  C   UNL     1      -2.684  11.253  26.088  0.00  0.00    +0.008 A 
ATOM     19  C   UNL     1      -2.934   9.981  26.598  0.00  0.00    -0.050 A 
ATOM     20  C   UNL     1      -2.526   9.637  27.999  0.00  0.00    +0.044 C 
ATOM     21  C   UNL     1      -3.559   9.047  25.776  0.00  0.00    +0.008 A 
ATOM     22  C   UNL     1      -2.780  13.043  24.379  0.00  0.00    +0.046 C 
ATOM     23  C   UNL     1      -3.929   9.343  24.443  0.00  0.00    -0.024 A 
ATOM     24  C   UNL     1      -4.476   8.157  23.690  0.00  0.00    +0.046 C 
ENDBRANCH  14  16
ENDBRANCH  10  12
ENDBRANCH   9  10
ENDBRANCH   5   9
ENDBRANCH   4   7
ENDBRANCH   1   4
BRANCH   1  25
ATOM     25  C   UNL     1      -6.337  10.742  15.475  0.00  0.00    +0.175 C 
BRANCH  25  26
ATOM     26  C   UNL     1      -4.992  10.952  14.765  0.00  0.00    +0.176 C 
ATOM     27  O   UNL     1      -5.255  11.598  13.489  0.00  0.00    -0.332 OA
ATOM     28  C   UNL     1      -4.070  11.975  12.713  0.00  0.00    +0.277 C 
ATOM     29  C   UNL     1      -3.150  10.747  12.499  0.00  0.00    +0.110 C 
ATOM     30  C   UNL     1      -2.868  10.009  13.824  0.00  0.00    +0.143 C 
ATOM     31  C   UNL     1      -4.169   9.667  14.550  0.00  0.00    +0.133 C 
BRANCH  31  32
ATOM     32  N   UNL     1      -3.885   9.042  15.851  0.00  0.00    -0.308 N 
ATOM     33  H   UNL     1      -3.474   9.619  16.572  0.00  0.00    +0.149 HD
ATOM     34  C   UNL     1      -4.134   7.763  16.142  0.00  0.00    +0.210 C 
ATOM     35  C   UNL     1      -4.736   6.904  15.015  0.00  0.00    +0.109 C 
ATOM     36  O   UNL     1      -3.898   7.270  17.246  0.00  0.00    -0.276 OA
ENDBRANCH  31  32
BRANCH  28  37
ATOM     37  C   UNL     1      -3.281  13.091  13.428  0.00  0.00    +0.414 C 
ATOM     38  O   UNL     1      -3.835  13.806  14.261  0.00  0.00    -0.240 OA
ATOM     39  O   UNL     1      -2.090  13.277  13.170  0.00  0.00    -0.240 OA
ENDBRANCH  28  37
BRANCH  30  40
ATOM     40  O   UNL     1      -2.146   8.805  13.560  0.00  0.00    -0.390 OA
ATOM     41  H   UNL     1      -1.623   8.570  14.330  0.00  0.00    +0.210 HD
ENDBRANCH  30  40
BRANCH  28  42
ATOM     42  O   UNL     1      -4.515  12.445  11.415  0.00  0.00    -0.343 OA
ATOM     43  C   UNL     1      -3.951  11.739  10.281  0.00  0.00    +0.198 C 
ENDBRANCH  28  42
ENDBRANCH  25  26
BRANCH  25  44
ATOM     44  O   UNL     1      -6.977   9.547  14.984  0.00  0.00    -0.387 OA
ATOM     45  H   UNL     1      -6.318   8.860  14.856  0.00  0.00    +0.210 HD
ENDBRANCH  25  44
ENDBRANCH   1  25
TORSDOF 14
