REMARK VINA RESULT:    -5.075      3.638      7.566
REMARK INTER + INTRA:         -10.954
REMARK INTER:                  -8.094
REMARK INTRA:                  -2.860
REMARK UNBOUND:                -2.170
REMARK  Name = lig_assembled_87.pdb
REMARK  17 active torsions:
REMARK  status: ('A' for Active; 'I' for Inactive)
REMARK    1  A    between atoms: _2  and  _10
REMARK    2  A    between atoms: _3  and  _13
REMARK    3  A    between atoms: _5  and  _21
REMARK    4  A    between atoms: _7  and  _8
REMARK    5  A    between atoms: _7  and  _21
REMARK    6  A    between atoms: _17  and  _37
REMARK    7  A    between atoms: _19  and  _25
REMARK    8  A    between atoms: _20  and  _24
REMARK    9  A    between atoms: _24  and  _25
REMARK   10  A    between atoms: _27  and  _28
REMARK   11  A    between atoms: _29  and  _30
REMARK   12  A    between atoms: _31  and  _33
REMARK   13  A    between atoms: _33  and  _34
REMARK   14  A    between atoms: _33  and  _35
REMARK   15  A    between atoms: _35  and  _36
REMARK   16  A    between atoms: _35  and  _37
REMARK   17  A    between atoms: _38  and  _40
REMARK                            x       y       z     vdW  Elec       q    Type
REMARK                         _______ _______ _______ _____ _____    ______ ____
ROOT
ATOM      1  C   UNL     1      -4.322   8.877  32.272  0.00  0.00    +0.163 C 
ENDROOT
BRANCH   1   2
ATOM      2  O   UNL     1      -2.986   9.402  32.204  0.00  0.00    -0.388 OA
ATOM      3  H   UNL     1      -2.437   8.815  31.678  0.00  0.00    +0.210 HD
ENDBRANCH   1   2
BRANCH   1   4
ATOM      4  C   UNL     1      -4.378   7.506  31.607  0.00  0.00    +0.141 C 
BRANCH   4   7
ATOM      5  C   UNL     1      -2.857   7.274  29.673  0.00  0.00    +0.401 C 
ATOM      6  O   UNL     1      -1.894   6.913  30.353  0.00  0.00    -0.226 OA
ATOM      7  N   UNL     1      -4.054   7.577  30.177  0.00  0.00    -0.279 N 
ATOM      8  H   UNL     1      -4.780   7.873  29.538  0.00  0.00    +0.152 HD
BRANCH   5   9
ATOM      9  O   UNL     1      -2.704   7.385  28.255  0.00  0.00    -0.444 OA
BRANCH   9  10
ATOM     10  C   UNL     1      -3.793   8.137  27.714  0.00  0.00    +0.292 C 
BRANCH  10  12
ATOM     11  N   UNL     1      -2.078   9.813  27.121  0.00  0.00    -0.131 NA
ATOM     12  C   UNL     1      -3.283   9.224  26.859  0.00  0.00    +0.120 A 
ATOM     13  C   UNL     1      -3.832   9.800  25.736  0.00  0.00    +0.137 A 
ATOM     14  N   UNL     1      -2.860  10.651  25.283  0.00  0.00    -0.248 N 
ATOM     15  N   UNL     1      -1.866  10.730  26.193  0.00  0.00    -0.065 NA
BRANCH  14  16
ATOM     16  C   UNL     1      -2.765  11.441  24.041  0.00  0.00    +0.112 C 
ATOM     17  C   UNL     1      -2.826  12.980  24.240  0.00  0.00    +0.045 C 
ATOM     18  C   UNL     1      -3.980  13.701  23.524  0.00  0.00    +0.059 C 
ATOM     19  C   UNL     1      -3.697  13.897  22.028  0.00  0.00    +0.020 C 
ATOM     20  C   UNL     1      -4.391  12.719  21.346  0.00  0.00    +0.020 C 
ATOM     21  C   UNL     1      -4.863  11.845  22.509  0.00  0.00    +0.059 C 
ATOM     22  N   UNL     1      -5.194  12.896  23.466  0.00  0.00    -0.299 NA
ATOM     23  C   UNL     1      -5.793  12.497  24.722  0.00  0.00    +0.105 C 
ATOM     24  C   UNL     1      -3.747  10.900  22.957  0.00  0.00    +0.045 C 
ENDBRANCH  14  16
ENDBRANCH  10  12
ENDBRANCH   9  10
ENDBRANCH   5   9
ENDBRANCH   4   7
ENDBRANCH   1   4
BRANCH   1  25
ATOM     25  C   UNL     1      -5.320   9.823  31.583  0.00  0.00    +0.175 C 
BRANCH  25  26
ATOM     26  C   UNL     1      -4.717  11.211  31.323  0.00  0.00    +0.176 C 
ATOM     27  O   UNL     1      -4.605  11.897  32.601  0.00  0.00    -0.332 OA
ATOM     28  C   UNL     1      -3.947  13.206  32.563  0.00  0.00    +0.277 C 
ATOM     29  C   UNL     1      -4.640  14.130  31.532  0.00  0.00    +0.110 C 
ATOM     30  C   UNL     1      -4.810  13.433  30.165  0.00  0.00    +0.143 C 
ATOM     31  C   UNL     1      -5.502  12.079  30.323  0.00  0.00    +0.133 C 
BRANCH  31  32
ATOM     32  N   UNL     1      -5.580  11.386  29.027  0.00  0.00    -0.308 N 
ATOM     33  H   UNL     1      -4.714  11.174  28.553  0.00  0.00    +0.149 HD
ATOM     34  C   UNL     1      -6.721  11.020  28.436  0.00  0.00    +0.210 C 
ATOM     35  C   UNL     1      -8.025  11.382  29.172  0.00  0.00    +0.109 C 
ATOM     36  O   UNL     1      -6.755  10.428  27.357  0.00  0.00    -0.276 OA
ENDBRANCH  31  32
BRANCH  28  37
ATOM     37  C   UNL     1      -2.454  13.058  32.200  0.00  0.00    +0.414 C 
ATOM     38  O   UNL     1      -1.895  11.967  32.309  0.00  0.00    -0.240 OA
ATOM     39  O   UNL     1      -1.810  14.028  31.800  0.00  0.00    -0.240 OA
ENDBRANCH  28  37
BRANCH  30  40
ATOM     40  O   UNL     1      -5.584  14.259  29.296  0.00  0.00    -0.390 OA
ATOM     41  H   UNL     1      -6.474  14.347  29.645  0.00  0.00    +0.210 HD
ENDBRANCH  30  40
BRANCH  28  42
ATOM     42  O   UNL     1      -4.073  13.810  33.876  0.00  0.00    -0.343 OA
ATOM     43  C   UNL     1      -4.551  15.179  33.877  0.00  0.00    +0.198 C 
ENDBRANCH  28  42
ENDBRANCH  25  26
BRANCH  25  44
ATOM     44  O   UNL     1      -6.518   9.943  32.376  0.00  0.00    -0.387 OA
ATOM     45  H   UNL     1      -6.374   9.545  33.238  0.00  0.00    +0.210 HD
ENDBRANCH  25  44
ENDBRANCH   1  25
TORSDOF 14
