REMARK VINA RESULT:    -5.322      7.827     10.857
REMARK INTER + INTRA:         -11.047
REMARK INTER:                  -7.265
REMARK INTRA:                  -3.782
REMARK UNBOUND:                -1.837
REMARK  Name = lig_assembled_2.pdb
REMARK  16 active torsions:
REMARK  status: ('A' for Active; 'I' for Inactive)
REMARK    1  A    between atoms: _2  and  _9
REMARK    2  A    between atoms: _4  and  _18
REMARK    3  A    between atoms: _6  and  _7
REMARK    4  A    between atoms: _6  and  _18
REMARK    5  A    between atoms: _14  and  _34
REMARK    6  A    between atoms: _16  and  _22
REMARK    7  A    between atoms: _17  and  _21
REMARK    8  A    between atoms: _21  and  _22
REMARK    9  A    between atoms: _24  and  _25
REMARK   10  A    between atoms: _26  and  _27
REMARK   11  A    between atoms: _28  and  _30
REMARK   12  A    between atoms: _30  and  _31
REMARK   13  A    between atoms: _30  and  _32
REMARK   14  A    between atoms: _32  and  _33
REMARK   15  A    between atoms: _32  and  _34
REMARK   16  A    between atoms: _35  and  _37
REMARK                            x       y       z     vdW  Elec       q    Type
REMARK                         _______ _______ _______ _____ _____    ______ ____
ROOT
ATOM      1  C   UNL     1      -2.873   6.903  26.699  0.00  0.00    +0.163 C 
ENDROOT
BRANCH   1   2
ATOM      2  O   UNL     1      -1.909   7.937  26.442  0.00  0.00    -0.388 OA
ATOM      3  H   UNL     1      -1.098   7.545  26.110  0.00  0.00    +0.210 HD
ENDBRANCH   1   2
BRANCH   1   4
ATOM      4  C   UNL     1      -2.959   5.961  25.502  0.00  0.00    +0.141 C 
BRANCH   4   7
ATOM      5  C   UNL     1      -4.234   6.449  23.442  0.00  0.00    +0.401 C 
ATOM      6  O   UNL     1      -3.229   6.603  22.744  0.00  0.00    -0.226 OA
ATOM      7  N   UNL     1      -4.200   6.153  24.742  0.00  0.00    -0.279 N 
ATOM      8  H   UNL     1      -5.078   6.055  25.232  0.00  0.00    +0.152 HD
BRANCH   5   9
ATOM      9  O   UNL     1      -5.525   6.595  22.844  0.00  0.00    -0.444 OA
BRANCH   9  10
ATOM     10  C   UNL     1      -5.401   7.305  21.610  0.00  0.00    +0.292 C 
BRANCH  10  12
ATOM     11  N   UNL     1      -6.606   9.310  22.418  0.00  0.00    -0.131 NA
ATOM     12  C   UNL     1      -5.497   8.759  21.844  0.00  0.00    +0.121 A 
ATOM     13  C   UNL     1      -4.587   9.756  21.574  0.00  0.00    +0.143 A 
ATOM     14  N   UNL     1      -5.180  10.910  22.032  0.00  0.00    -0.220 N 
ATOM     15  N   UNL     1      -6.409  10.617  22.522  0.00  0.00    -0.060 NA
BRANCH  14  16
ATOM     16  C   UNL     1      -4.654  12.228  22.058  0.00  0.00    +0.067 A 
ATOM     17  C   UNL     1      -5.274  13.238  22.809  0.00  0.00    +0.029 A 
ATOM     18  C   UNL     1      -4.760  14.539  22.791  0.00  0.00    +0.022 A 
ATOM     19  C   UNL     1      -3.631  14.834  22.029  0.00  0.00    +0.041 A 
ATOM     20 CL   UNL     1      -3.021  16.442  21.996  0.00  0.00    -0.084 Cl
ATOM     21  C   UNL     1      -3.000  13.835  21.292  0.00  0.00    +0.022 A 
ATOM     22  C   UNL     1      -3.506  12.533  21.306  0.00  0.00    +0.029 A 
ENDBRANCH  14  16
ENDBRANCH  10  12
ENDBRANCH   9  10
ENDBRANCH   5   9
ENDBRANCH   4   7
ENDBRANCH   1   4
BRANCH   1  23
ATOM     23  C   UNL     1      -4.261   7.502  26.982  0.00  0.00    +0.175 C 
BRANCH  23  24
ATOM     24  C   UNL     1      -4.373   8.955  26.497  0.00  0.00    +0.176 C 
ATOM     25  O   UNL     1      -3.704   9.803  27.470  0.00  0.00    -0.332 OA
ATOM     26  C   UNL     1      -3.617  11.224  27.119  0.00  0.00    +0.277 C 
ATOM     27  C   UNL     1      -5.024  11.792  26.810  0.00  0.00    +0.110 C 
ATOM     28  C   UNL     1      -5.788  10.905  25.804  0.00  0.00    +0.143 C 
ATOM     29  C   UNL     1      -5.814   9.448  26.266  0.00  0.00    +0.133 C 
BRANCH  29  30
ATOM     30  N   UNL     1      -6.468   8.599  25.258  0.00  0.00    -0.308 N 
ATOM     31  H   UNL     1      -6.068   8.575  24.330  0.00  0.00    +0.149 HD
ATOM     32  C   UNL     1      -7.555   7.858  25.489  0.00  0.00    +0.210 C 
ATOM     33  C   UNL     1      -8.155   7.936  26.905  0.00  0.00    +0.109 C 
ATOM     34  O   UNL     1      -8.073   7.145  24.628  0.00  0.00    -0.276 OA
ENDBRANCH  29  30
BRANCH  26  35
ATOM     35  C   UNL     1      -2.699  11.430  25.897  0.00  0.00    +0.414 C 
ATOM     36  O   UNL     1      -2.838  12.418  25.175  0.00  0.00    -0.240 OA
ATOM     37  O   UNL     1      -1.818  10.611  25.632  0.00  0.00    -0.240 OA
ENDBRANCH  26  35
BRANCH  28  38
ATOM     38  O   UNL     1      -7.128  11.378  25.665  0.00  0.00    -0.390 OA
ATOM     39  H   UNL     1      -7.249  11.745  24.786  0.00  0.00    +0.210 HD
ENDBRANCH  28  38
BRANCH  26  40
ATOM     40  O   UNL     1      -3.077  11.937  28.261  0.00  0.00    -0.343 OA
ATOM     41  C   UNL     1      -4.047  12.282  29.282  0.00  0.00    +0.198 C 
ENDBRANCH  26  40
ENDBRANCH  23  24
BRANCH  23  42
ATOM     42  O   UNL     1      -4.558   7.423  28.390  0.00  0.00    -0.387 OA
ATOM     43  H   UNL     1      -4.374   8.270  28.804  0.00  0.00    +0.210 HD
ENDBRANCH  23  42
ENDBRANCH   1  23
TORSDOF 14
