REMARK VINA RESULT:    -5.223      3.450     10.342
REMARK INTER + INTRA:         -11.907
REMARK INTER:                  -8.903
REMARK INTRA:                  -3.004
REMARK UNBOUND:                -2.867
REMARK  Name = lig_assembled_70.pdb
REMARK  16 active torsions:
REMARK  status: ('A' for Active; 'I' for Inactive)
REMARK    1  A    between atoms: _2  and  _10
REMARK    2  A    between atoms: _5  and  _22
REMARK    3  A    between atoms: _7  and  _8
REMARK    4  A    between atoms: _7  and  _22
REMARK    5  A    between atoms: _18  and  _38
REMARK    6  A    between atoms: _20  and  _26
REMARK    7  A    between atoms: _21  and  _25
REMARK    8  A    between atoms: _25  and  _26
REMARK    9  A    between atoms: _28  and  _29
REMARK   10  A    between atoms: _30  and  _31
REMARK   11  A    between atoms: _32  and  _34
REMARK   12  A    between atoms: _34  and  _35
REMARK   13  A    between atoms: _34  and  _36
REMARK   14  A    between atoms: _36  and  _37
REMARK   15  A    between atoms: _36  and  _38
REMARK   16  A    between atoms: _39  and  _41
REMARK                            x       y       z     vdW  Elec       q    Type
REMARK                         _______ _______ _______ _____ _____    ______ ____
ROOT
ATOM      1  C   UNL     1      -6.476   8.666  22.997  0.00  0.00    +0.163 C 
ENDROOT
BRANCH   1   2
ATOM      2  O   UNL     1      -6.303   8.669  24.424  0.00  0.00    -0.388 OA
ATOM      3  H   UNL     1      -6.731   9.444  24.797  0.00  0.00    +0.210 HD
ENDBRANCH   1   2
BRANCH   1   4
ATOM      4  C   UNL     1      -5.417   7.784  22.345  0.00  0.00    +0.141 C 
BRANCH   4   7
ATOM      5  C   UNL     1      -3.806   6.175  23.308  0.00  0.00    +0.401 C 
ATOM      6  O   UNL     1      -4.099   5.269  22.525  0.00  0.00    -0.226 OA
ATOM      7  N   UNL     1      -4.376   7.381  23.300  0.00  0.00    -0.279 N 
ATOM      8  H   UNL     1      -4.075   8.056  23.989  0.00  0.00    +0.152 HD
BRANCH   5   9
ATOM      9  O   UNL     1      -2.800   5.941  24.297  0.00  0.00    -0.444 OA
BRANCH   9  10
ATOM     10  C   UNL     1      -3.415   5.798  25.580  0.00  0.00    +0.292 C 
BRANCH  10  12
ATOM     11  N   UNL     1      -1.690   7.355  26.442  0.00  0.00    -0.131 NA
ATOM     12  C   UNL     1      -2.964   6.868  26.490  0.00  0.00    +0.121 A 
ATOM     13  C   UNL     1      -3.660   7.530  27.474  0.00  0.00    +0.143 A 
ATOM     14  N   UNL     1      -2.764   8.433  27.998  0.00  0.00    -0.218 N 
ATOM     15  N   UNL     1      -1.574   8.301  27.366  0.00  0.00    -0.060 NA
BRANCH  14  16
ATOM     16  C   UNL     1      -2.978   9.392  29.010  0.00  0.00    +0.086 A 
ATOM     17  C   UNL     1      -2.652   9.109  30.326  0.00  0.00    +0.139 A 
ATOM     18  N   UNL     1      -2.789  10.001  31.341  0.00  0.00    -0.253 NA
ATOM     19  C   UNL     1      -3.259  11.229  31.054  0.00  0.00    +0.071 A 
ATOM     20  C   UNL     1      -3.631  11.600  29.745  0.00  0.00    +0.002 A 
ATOM     21  C   UNL     1      -4.117  12.894  29.482  0.00  0.00    +0.010 A 
ATOM     22  C   UNL     1      -4.217  13.829  30.508  0.00  0.00    +0.001 A 
ATOM     23  C   UNL     1      -3.843  13.471  31.798  0.00  0.00    +0.002 A 
ATOM     24  C   UNL     1      -3.377  12.179  32.059  0.00  0.00    +0.028 A 
ATOM     25  C   UNL     1      -3.492  10.657  28.721  0.00  0.00    +0.039 A 
ENDBRANCH  14  16
ENDBRANCH  10  12
ENDBRANCH   9  10
ENDBRANCH   5   9
ENDBRANCH   4   7
ENDBRANCH   1   4
BRANCH   1  26
ATOM     26  C   UNL     1      -6.377  10.092  22.428  0.00  0.00    +0.175 C 
BRANCH  26  27
ATOM     27  C   UNL     1      -5.058  10.778  22.811  0.00  0.00    +0.176 C 
ATOM     28  O   UNL     1      -5.259  11.458  24.081  0.00  0.00    -0.332 OA
ATOM     29  C   UNL     1      -4.067  12.085  24.660  0.00  0.00    +0.277 C 
ATOM     30  C   UNL     1      -3.419  13.056  23.643  0.00  0.00    +0.110 C 
ATOM     31  C   UNL     1      -3.214  12.387  22.268  0.00  0.00    +0.143 C 
ATOM     32  C   UNL     1      -4.515  11.765  21.761  0.00  0.00    +0.133 C 
BRANCH  32  33
ATOM     33  N   UNL     1      -4.288  11.056  20.492  0.00  0.00    -0.308 N 
ATOM     34  H   UNL     1      -3.536  10.382  20.457  0.00  0.00    +0.149 HD
ATOM     35  C   UNL     1      -5.009  11.245  19.384  0.00  0.00    +0.210 C 
ATOM     36  C   UNL     1      -6.130  12.299  19.462  0.00  0.00    +0.109 C 
ATOM     37  O   UNL     1      -4.805  10.626  18.339  0.00  0.00    -0.276 OA
ENDBRANCH  32  33
BRANCH  29  38
ATOM     38  C   UNL     1      -3.037  11.017  25.082  0.00  0.00    +0.414 C 
ATOM     39  O   UNL     1      -3.294   9.821  24.949  0.00  0.00    -0.240 OA
ATOM     40  O   UNL     1      -1.950  11.351  25.555  0.00  0.00    -0.240 OA
ENDBRANCH  29  38
BRANCH  31  41
ATOM     41  O   UNL     1      -2.757  13.357  21.324  0.00  0.00    -0.390 OA
ATOM     42  H   UNL     1      -2.133  13.949  21.749  0.00  0.00    +0.210 HD
ENDBRANCH  31  41
BRANCH  29  43
ATOM     43  O   UNL     1      -4.482  12.850  25.822  0.00  0.00    -0.343 OA
ATOM     44  C   UNL     1      -5.913  12.878  26.057  0.00  0.00    +0.198 C 
ENDBRANCH  29  43
ENDBRANCH  26  27
BRANCH  26  45
ATOM     45  O   UNL     1      -7.496  10.884  22.875  0.00  0.00    -0.387 OA
ATOM     46  H   UNL     1      -7.918  11.299  22.119  0.00  0.00    +0.210 HD
ENDBRANCH  26  45
ENDBRANCH   1  26
TORSDOF 14
