REMARK VINA RESULT:    -5.201      3.270      5.868
REMARK INTER + INTRA:         -12.271
REMARK INTER:                 -10.141
REMARK INTRA:                  -2.130
REMARK UNBOUND:                -2.966
REMARK  Name = lig_assembled_89.pdb
REMARK  19 active torsions:
REMARK  status: ('A' for Active; 'I' for Inactive)
REMARK    1  A    between atoms: _2  and  _12
REMARK    2  A    between atoms: _5  and  _20
REMARK    3  A    between atoms: _7  and  _29
REMARK    4  A    between atoms: _9  and  _10
REMARK    5  A    between atoms: _9  and  _29
REMARK    6  A    between atoms: _20  and  _21
REMARK    7  A    between atoms: _20  and  _22
REMARK    8  A    between atoms: _25  and  _45
REMARK    9  A    between atoms: _27  and  _33
REMARK   10  A    between atoms: _28  and  _32
REMARK   11  A    between atoms: _32  and  _33
REMARK   12  A    between atoms: _35  and  _36
REMARK   13  A    between atoms: _37  and  _38
REMARK   14  A    between atoms: _39  and  _41
REMARK   15  A    between atoms: _41  and  _42
REMARK   16  A    between atoms: _41  and  _43
REMARK   17  A    between atoms: _43  and  _44
REMARK   18  A    between atoms: _43  and  _45
REMARK   19  A    between atoms: _46  and  _48
REMARK                            x       y       z     vdW  Elec       q    Type
REMARK                         _______ _______ _______ _____ _____    ______ ____
ROOT
ATOM      1  C   UNL     1      -4.801  10.931  19.378  0.00  0.00    +0.401 C 
ATOM      2  O   UNL     1      -4.487  12.120  19.285  0.00  0.00    -0.226 OA
ATOM      3  N   UNL     1      -5.726  10.343  18.619  0.00  0.00    -0.279 N 
ATOM      4  H   UNL     1      -5.908   9.360  18.764  0.00  0.00    +0.152 HD
ENDROOT
BRANCH   3   5
ATOM      5  C   UNL     1      -6.497  11.044  17.585  0.00  0.00    +0.141 C 
BRANCH   5   6
ATOM      6  C   UNL     1      -5.788  11.022  16.234  0.00  0.00    +0.163 C 
BRANCH   6   7
ATOM      7  O   UNL     1      -4.931  12.170  16.111  0.00  0.00    -0.388 OA
ATOM      8  H   UNL     1      -4.150  11.933  15.604  0.00  0.00    +0.210 HD
ENDBRANCH   6   7
BRANCH   6   9
ATOM      9  C   UNL     1      -4.984   9.718  16.097  0.00  0.00    +0.175 C 
BRANCH   9  10
ATOM     10  C   UNL     1      -4.020   9.756  14.902  0.00  0.00    +0.176 C 
ATOM     11  O   UNL     1      -4.722  10.363  13.781  0.00  0.00    -0.332 OA
ATOM     12  C   UNL     1      -3.919  10.580  12.574  0.00  0.00    +0.277 C 
ATOM     13  C   UNL     1      -3.253   9.257  12.121  0.00  0.00    +0.110 C 
ATOM     14  C   UNL     1      -2.522   8.560  13.287  0.00  0.00    +0.143 C 
ATOM     15  C   UNL     1      -3.448   8.387  14.491  0.00  0.00    +0.133 C 
BRANCH  15  16
ATOM     16  N   UNL     1      -2.716   7.800  15.625  0.00  0.00    -0.308 N 
ATOM     17  H   UNL     1      -1.972   8.345  16.038  0.00  0.00    +0.149 HD
ATOM     18  C   UNL     1      -2.971   6.596  16.143  0.00  0.00    +0.210 C 
ATOM     19  C   UNL     1      -4.094   5.781  15.475  0.00  0.00    +0.109 C 
ATOM     20  O   UNL     1      -2.351   6.136  17.103  0.00  0.00    -0.276 OA
ENDBRANCH  15  16
BRANCH  12  21
ATOM     21  C   UNL     1      -2.831  11.645  12.825  0.00  0.00    +0.414 C 
ATOM     22  O   UNL     1      -3.053  12.593  13.577  0.00  0.00    -0.240 OA
ATOM     23  O   UNL     1      -1.732  11.556  12.277  0.00  0.00    -0.240 OA
ENDBRANCH  12  21
BRANCH  14  24
ATOM     24  O   UNL     1      -2.055   7.278  12.865  0.00  0.00    -0.390 OA
ATOM     25  H   UNL     1      -1.112   7.209  13.033  0.00  0.00    +0.210 HD
ENDBRANCH  14  24
BRANCH  12  26
ATOM     26  O   UNL     1      -4.808  11.029  11.519  0.00  0.00    -0.343 OA
ATOM     27  C   UNL     1      -4.394  10.671  10.176  0.00  0.00    +0.198 C 
ENDBRANCH  12  26
ENDBRANCH   9  10
BRANCH   9  28
ATOM     28  O   UNL     1      -5.879   8.594  15.978  0.00  0.00    -0.387 OA
ATOM     29  H   UNL     1      -6.776   8.876  16.171  0.00  0.00    +0.210 HD
ENDBRANCH   9  28
ENDBRANCH   6   9
ENDBRANCH   5   6
ENDBRANCH   3   5
BRANCH   1  30
ATOM     30  O   UNL     1      -4.143  10.113  20.349  0.00  0.00    -0.444 OA
BRANCH  30  31
ATOM     31  C   UNL     1      -4.930  10.062  21.542  0.00  0.00    +0.292 C 
BRANCH  31  33
ATOM     32  N   UNL     1      -3.167  11.347  22.691  0.00  0.00    -0.131 NA
ATOM     33  C   UNL     1      -4.090  10.344  22.719  0.00  0.00    +0.121 A 
ATOM     34  C   UNL     1      -4.068   9.749  23.957  0.00  0.00    +0.145 A 
ATOM     35  N   UNL     1      -3.119  10.449  24.679  0.00  0.00    -0.199 N 
ATOM     36  N   UNL     1      -2.591  11.408  23.884  0.00  0.00    -0.059 NA
BRANCH  35  37
ATOM     37  C   UNL     1      -2.817  10.261  26.059  0.00  0.00    +0.186 A 
ATOM     38  C   UNL     1      -3.363  10.867  27.172  0.00  0.00    +0.158 A 
ATOM     39  C   UNL     1      -4.289  11.944  27.346  0.00  0.00    +0.280 A 
ATOM     40  O   UNL     1      -4.513  12.765  26.467  0.00  0.00    -0.265 OA
ATOM     41  N   UNL     1      -4.901  12.011  28.614  0.00  0.00    -0.302 N 
ATOM     42  C   UNL     1      -4.292  11.355  29.750  0.00  0.00    +0.069 A 
ATOM     43  C   UNL     1      -4.687  11.606  31.072  0.00  0.00    +0.028 A 
ATOM     44  C   UNL     1      -4.040  10.990  32.152  0.00  0.00    +0.002 A 
ATOM     45  C   UNL     1      -2.993  10.101  31.936  0.00  0.00    +0.002 A 
ATOM     46  C   UNL     1      -2.585   9.818  30.637  0.00  0.00    +0.028 A 
ATOM     47  C   UNL     1      -3.226  10.448  29.560  0.00  0.00    +0.072 A 
ATOM     48  N   UNL     1      -2.832  10.191  28.237  0.00  0.00    -0.291 N 
ATOM     49  C   UNL     1      -1.918   9.298  27.740  0.00  0.00    +0.207 A 
ATOM     50  N   UNL     1      -1.890   9.304  26.425  0.00  0.00    -0.216 NA
BRANCH  41  51
ATOM     51  C   UNL     1      -6.048  12.934  28.782  0.00  0.00    +0.085 C 
ATOM     52  C   UNL     1      -5.706  14.210  29.577  0.00  0.00    +0.030 C 
ATOM     53  C   UNL     1      -7.258  12.230  29.396  0.00  0.00    +0.030 C 
ENDBRANCH  41  51
ENDBRANCH  35  37
ENDBRANCH  31  33
ENDBRANCH  30  31
ENDBRANCH   1  30
TORSDOF 15
