REMARK VINA RESULT:    -5.123      3.328      6.097
REMARK INTER + INTRA:         -11.037
REMARK INTER:                  -8.424
REMARK INTRA:                  -2.613
REMARK UNBOUND:                -2.170
REMARK  Name = lig_assembled_87.pdb
REMARK  17 active torsions:
REMARK  status: ('A' for Active; 'I' for Inactive)
REMARK    1  A    between atoms: _2  and  _10
REMARK    2  A    between atoms: _3  and  _13
REMARK    3  A    between atoms: _5  and  _21
REMARK    4  A    between atoms: _7  and  _8
REMARK    5  A    between atoms: _7  and  _21
REMARK    6  A    between atoms: _17  and  _37
REMARK    7  A    between atoms: _19  and  _25
REMARK    8  A    between atoms: _20  and  _24
REMARK    9  A    between atoms: _24  and  _25
REMARK   10  A    between atoms: _27  and  _28
REMARK   11  A    between atoms: _29  and  _30
REMARK   12  A    between atoms: _31  and  _33
REMARK   13  A    between atoms: _33  and  _34
REMARK   14  A    between atoms: _33  and  _35
REMARK   15  A    between atoms: _35  and  _36
REMARK   16  A    between atoms: _35  and  _37
REMARK   17  A    between atoms: _38  and  _40
REMARK                            x       y       z     vdW  Elec       q    Type
REMARK                         _______ _______ _______ _____ _____    ______ ____
ROOT
ATOM      1  C   UNL     1      -2.572   7.962  26.427  0.00  0.00    +0.163 C 
ENDROOT
BRANCH   1   2
ATOM      2  O   UNL     1      -2.934   7.261  25.226  0.00  0.00    -0.388 OA
ATOM      3  H   UNL     1      -3.403   6.455  25.454  0.00  0.00    +0.210 HD
ENDBRANCH   1   2
BRANCH   1   4
ATOM      4  C   UNL     1      -3.276   7.338  27.628  0.00  0.00    +0.141 C 
BRANCH   4   7
ATOM      5  C   UNL     1      -4.571   8.292  29.503  0.00  0.00    +0.401 C 
ATOM      6  O   UNL     1      -5.472   7.453  29.432  0.00  0.00    -0.226 OA
ATOM      7  N   UNL     1      -3.510   8.317  28.696  0.00  0.00    -0.279 N 
ATOM      8  H   UNL     1      -2.829   9.052  28.826  0.00  0.00    +0.152 HD
BRANCH   5   9
ATOM      9  O   UNL     1      -4.650   9.312  30.502  0.00  0.00    -0.444 OA
BRANCH   9  10
ATOM     10  C   UNL     1      -3.390   9.428  31.167  0.00  0.00    +0.292 C 
BRANCH  10  12
ATOM     11  N   UNL     1      -2.026  11.189  32.237  0.00  0.00    -0.131 NA
ATOM     12  C   UNL     1      -3.111  10.841  31.482  0.00  0.00    +0.120 A 
ATOM     13  C   UNL     1      -3.788  11.982  31.114  0.00  0.00    +0.137 A 
ATOM     14  N   UNL     1      -3.000  13.005  31.569  0.00  0.00    -0.248 N 
ATOM     15  N   UNL     1      -2.011  12.507  32.340  0.00  0.00    -0.065 NA
BRANCH  14  16
ATOM     16  C   UNL     1      -3.088  14.462  31.359  0.00  0.00    +0.112 C 
ATOM     17  C   UNL     1      -3.029  15.313  32.658  0.00  0.00    +0.045 C 
ATOM     18  C   UNL     1      -4.253  16.204  32.927  0.00  0.00    +0.059 C 
ATOM     19  C   UNL     1      -4.232  17.483  32.077  0.00  0.00    +0.020 C 
ATOM     20  C   UNL     1      -5.099  17.154  30.863  0.00  0.00    +0.020 C 
ATOM     21  C   UNL     1      -5.401  15.663  31.018  0.00  0.00    +0.059 C 
ATOM     22  N   UNL     1      -5.499  15.599  32.473  0.00  0.00    -0.299 NA
ATOM     23  C   UNL     1      -5.884  14.336  33.065  0.00  0.00    +0.105 C 
ATOM     24  C   UNL     1      -4.275  14.822  30.415  0.00  0.00    +0.045 C 
ENDBRANCH  14  16
ENDBRANCH  10  12
ENDBRANCH   9  10
ENDBRANCH   5   9
ENDBRANCH   4   7
ENDBRANCH   1   4
BRANCH   1  25
ATOM     25  C   UNL     1      -2.946   9.451  26.330  0.00  0.00    +0.175 C 
BRANCH  25  26
ATOM     26  C   UNL     1      -3.847   9.743  25.121  0.00  0.00    +0.176 C 
ATOM     27  O   UNL     1      -2.994  10.153  24.016  0.00  0.00    -0.332 OA
ATOM     28  C   UNL     1      -3.675  10.373  22.737  0.00  0.00    +0.277 C 
ATOM     29  C   UNL     1      -4.833  11.386  22.908  0.00  0.00    +0.110 C 
ATOM     30  C   UNL     1      -5.750  11.009  24.091  0.00  0.00    +0.143 C 
ATOM     31  C   UNL     1      -4.937  10.801  25.370  0.00  0.00    +0.133 C 
BRANCH  31  32
ATOM     32  N   UNL     1      -5.810  10.358  26.468  0.00  0.00    -0.308 N 
ATOM     33  H   UNL     1      -6.249   9.452  26.386  0.00  0.00    +0.149 HD
ATOM     34  C   UNL     1      -6.060  11.076  27.567  0.00  0.00    +0.210 C 
ATOM     35  C   UNL     1      -5.397  12.463  27.650  0.00  0.00    +0.109 C 
ATOM     36  O   UNL     1      -6.784  10.673  28.478  0.00  0.00    -0.276 OA
ENDBRANCH  31  32
BRANCH  28  37
ATOM     37  C   UNL     1      -4.230   9.046  22.177  0.00  0.00    +0.414 C 
ATOM     38  O   UNL     1      -3.768   7.971  22.559  0.00  0.00    -0.240 OA
ATOM     39  O   UNL     1      -5.138   9.051  21.345  0.00  0.00    -0.240 OA
ENDBRANCH  28  37
BRANCH  30  40
ATOM     40  O   UNL     1      -6.709  12.046  24.307  0.00  0.00    -0.390 OA
ATOM     41  H   UNL     1      -7.485  11.679  24.736  0.00  0.00    +0.210 HD
ENDBRANCH  30  40
BRANCH  28  42
ATOM     42  O   UNL     1      -2.713  10.931  21.806  0.00  0.00    -0.343 OA
ATOM     43  C   UNL     1      -3.144  12.139  21.131  0.00  0.00    +0.198 C 
ENDBRANCH  28  42
ENDBRANCH  25  26
BRANCH  25  44
ATOM     44  O   UNL     1      -1.754  10.259  26.268  0.00  0.00    -0.387 OA
ATOM     45  H   UNL     1      -1.545  10.452  25.350  0.00  0.00    +0.210 HD
ENDBRANCH  25  44
ENDBRANCH   1  25
TORSDOF 14
