REMARK VINA RESULT:    -5.288      4.442     10.118
REMARK INTER + INTRA:         -11.439
REMARK INTER:                  -9.298
REMARK INTRA:                  -2.142
REMARK UNBOUND:                -2.287
REMARK  Name = lig_assembled_52.pdb
REMARK  16 active torsions:
REMARK  status: ('A' for Active; 'I' for Inactive)
REMARK    1  A    between atoms: _2  and  _10
REMARK    2  A    between atoms: _5  and  _18
REMARK    3  A    between atoms: _7  and  _8
REMARK    4  A    between atoms: _7  and  _18
REMARK    5  A    between atoms: _14  and  _34
REMARK    6  A    between atoms: _16  and  _22
REMARK    7  A    between atoms: _17  and  _21
REMARK    8  A    between atoms: _21  and  _22
REMARK    9  A    between atoms: _24  and  _25
REMARK   10  A    between atoms: _26  and  _27
REMARK   11  A    between atoms: _28  and  _30
REMARK   12  A    between atoms: _30  and  _31
REMARK   13  A    between atoms: _30  and  _32
REMARK   14  A    between atoms: _32  and  _33
REMARK   15  A    between atoms: _32  and  _34
REMARK   16  A    between atoms: _35  and  _37
REMARK                            x       y       z     vdW  Elec       q    Type
REMARK                         _______ _______ _______ _____ _____    ______ ____
ROOT
ATOM      1  C   UNL     1      -3.265  11.764  25.113  0.00  0.00    +0.163 C 
ENDROOT
BRANCH   1   2
ATOM      2  O   UNL     1      -2.140  10.873  25.048  0.00  0.00    -0.388 OA
ATOM      3  H   UNL     1      -1.492  11.220  24.429  0.00  0.00    +0.210 HD
ENDBRANCH   1   2
BRANCH   1   4
ATOM      4  C   UNL     1      -2.955  13.053  24.359  0.00  0.00    +0.141 C 
BRANCH   4   7
ATOM      5  C   UNL     1      -4.925  13.527  22.944  0.00  0.00    +0.401 C 
ATOM      6  O   UNL     1      -5.635  13.882  23.887  0.00  0.00    -0.226 OA
ATOM      7  N   UNL     1      -3.662  13.118  23.074  0.00  0.00    -0.279 N 
ATOM      8  H   UNL     1      -3.164  12.837  22.241  0.00  0.00    +0.152 HD
BRANCH   5   9
ATOM      9  O   UNL     1      -5.468  13.542  21.621  0.00  0.00    -0.444 OA
BRANCH   9  10
ATOM     10  C   UNL     1      -5.703  12.200  21.186  0.00  0.00    +0.292 C 
BRANCH  10  12
ATOM     11  N   UNL     1      -6.752  12.198  18.945  0.00  0.00    -0.131 NA
ATOM     12  C   UNL     1      -5.627  12.119  19.715  0.00  0.00    +0.121 A 
ATOM     13  C   UNL     1      -4.533  11.969  18.895  0.00  0.00    +0.143 A 
ATOM     14  N   UNL     1      -5.041  11.982  17.616  0.00  0.00    -0.218 N 
ATOM     15  N   UNL     1      -6.388  12.110  17.673  0.00  0.00    -0.060 NA
BRANCH  14  16
ATOM     16  C   UNL     1      -4.347  11.899  16.390  0.00  0.00    +0.085 A 
ATOM     17  C   UNL     1      -4.271  12.980  15.509  0.00  0.00    +0.031 A 
ATOM     18  C   UNL     1      -3.589  12.828  14.302  0.00  0.00    +0.022 A 
ATOM     19  C   UNL     1      -3.006  11.604  14.023  0.00  0.00    +0.111 A 
ATOM     20  N   UNL     1      -3.055  10.544  14.857  0.00  0.00    -0.261 NA
ATOM     21  C   UNL     1      -3.724  10.711  16.024  0.00  0.00    +0.138 A 
ENDBRANCH  14  16
ENDBRANCH  10  12
ENDBRANCH   9  10
ENDBRANCH   5   9
ENDBRANCH   4   7
ENDBRANCH   1   4
BRANCH   1  22
ATOM     22  C   UNL     1      -3.619  12.096  26.573  0.00  0.00    +0.175 C 
BRANCH  22  23
ATOM     23  C   UNL     1      -3.383  10.903  27.511  0.00  0.00    +0.176 C 
ATOM     24  O   UNL     1      -3.999   9.732  26.908  0.00  0.00    -0.332 OA
ATOM     25  C   UNL     1      -3.782   8.467  27.617  0.00  0.00    +0.277 C 
ATOM     26  C   UNL     1      -4.228   8.591  29.094  0.00  0.00    +0.110 C 
ATOM     27  C   UNL     1      -3.624   9.840  29.769  0.00  0.00    +0.143 C 
ATOM     28  C   UNL     1      -3.906  11.098  28.946  0.00  0.00    +0.133 C 
BRANCH  28  29
ATOM     29  N   UNL     1      -3.251  12.268  29.553  0.00  0.00    -0.308 N 
ATOM     30  H   UNL     1      -2.241  12.290  29.565  0.00  0.00    +0.149 HD
ATOM     31  C   UNL     1      -3.904  13.302  30.089  0.00  0.00    +0.210 C 
ATOM     32  C   UNL     1      -5.443  13.226  30.079  0.00  0.00    +0.109 C 
ATOM     33  O   UNL     1      -3.329  14.276  30.577  0.00  0.00    -0.276 OA
ENDBRANCH  28  29
BRANCH  25  34
ATOM     34  C   UNL     1      -2.297   8.055  27.560  0.00  0.00    +0.414 C 
ATOM     35  O   UNL     1      -1.779   7.465  28.508  0.00  0.00    -0.240 OA
ATOM     36  O   UNL     1      -1.615   8.312  26.566  0.00  0.00    -0.240 OA
ENDBRANCH  25  34
BRANCH  27  37
ATOM     37  O   UNL     1      -4.178   9.998  31.075  0.00  0.00    -0.390 OA
ATOM     38  H   UNL     1      -3.705  10.691  31.543  0.00  0.00    +0.210 HD
ENDBRANCH  27  37
BRANCH  25  39
ATOM     39  O   UNL     1      -4.596   7.449  26.978  0.00  0.00    -0.343 OA
ATOM     40  C   UNL     1      -5.203   7.850  25.723  0.00  0.00    +0.198 C 
ENDBRANCH  25  39
ENDBRANCH  22  23
BRANCH  22  41
ATOM     41  O   UNL     1      -4.989  12.535  26.664  0.00  0.00    -0.387 OA
ATOM     42  H   UNL     1      -5.520  12.068  26.014  0.00  0.00    +0.210 HD
ENDBRANCH  22  41
ENDBRANCH   1  22
TORSDOF 14
