REMARK VINA RESULT:    -4.307      2.290      6.481
REMARK INTER + INTRA:         -11.338
REMARK INTER:                  -7.679
REMARK INTRA:                  -3.659
REMARK UNBOUND:                -3.505
REMARK  Name = lig_assembled_22.pdb
REMARK  20 active torsions:
REMARK  status: ('A' for Active; 'I' for Inactive)
REMARK    1  A    between atoms: _2  and  _9
REMARK    2  A    between atoms: _4  and  _18
REMARK    3  A    between atoms: _5  and  _9
REMARK    4  A    between atoms: _5  and  _12
REMARK    5  A    between atoms: _6  and  _7
REMARK    6  A    between atoms: _6  and  _18
REMARK    7  A    between atoms: _9  and  _10
REMARK    8  A    between atoms: _9  and  _11
REMARK    9  A    between atoms: _14  and  _34
REMARK   10  A    between atoms: _16  and  _22
REMARK   11  A    between atoms: _17  and  _21
REMARK   12  A    between atoms: _21  and  _22
REMARK   13  A    between atoms: _24  and  _25
REMARK   14  A    between atoms: _26  and  _27
REMARK   15  A    between atoms: _28  and  _30
REMARK   16  A    between atoms: _30  and  _31
REMARK   17  A    between atoms: _30  and  _32
REMARK   18  A    between atoms: _32  and  _33
REMARK   19  A    between atoms: _32  and  _34
REMARK   20  A    between atoms: _35  and  _37
REMARK                            x       y       z     vdW  Elec       q    Type
REMARK                         _______ _______ _______ _____ _____    ______ ____
ROOT
ATOM      1  C   UNL     1      -2.901  11.806  24.085  0.00  0.00    +0.163 C 
ENDROOT
BRANCH   1   2
ATOM      2  O   UNL     1      -2.196  11.590  25.319  0.00  0.00    -0.388 OA
ATOM      3  H   UNL     1      -2.705  11.953  26.047  0.00  0.00    +0.210 HD
ENDBRANCH   1   2
BRANCH   1   4
ATOM      4  C   UNL     1      -3.739  13.077  24.180  0.00  0.00    +0.141 C 
BRANCH   4   7
ATOM      5  C   UNL     1      -5.726  13.058  25.649  0.00  0.00    +0.401 C 
ATOM      6  O   UNL     1      -6.518  12.829  24.733  0.00  0.00    -0.226 OA
ATOM      7  N   UNL     1      -4.410  13.195  25.480  0.00  0.00    -0.279 N 
ATOM      8  H   UNL     1      -3.843  13.391  26.293  0.00  0.00    +0.152 HD
BRANCH   5   9
ATOM      9  O   UNL     1      -6.226  13.192  26.982  0.00  0.00    -0.444 OA
BRANCH   9  10
ATOM     10  C   UNL     1      -6.305  11.902  27.595  0.00  0.00    +0.292 C 
BRANCH  10  12
ATOM     11  N   UNL     1      -4.263  12.517  28.840  0.00  0.00    -0.131 NA
ATOM     12  C   UNL     1      -5.459  11.857  28.802  0.00  0.00    +0.120 A 
ATOM     13  C   UNL     1      -5.658  11.221  30.008  0.00  0.00    +0.138 A 
ATOM     14  N   UNL     1      -4.546  11.531  30.740  0.00  0.00    -0.235 N 
ATOM     15  N   UNL     1      -3.712  12.309  30.024  0.00  0.00    -0.064 NA
BRANCH  14  16
ATOM     16  C   UNL     1      -4.185  11.123  32.099  0.00  0.00    +0.155 C 
ATOM     17  C   UNL     1      -3.822   9.624  32.179  0.00  0.00    +0.048 C 
ATOM     18  C   UNL     1      -5.384  11.384  33.029  0.00  0.00    +0.048 C 
BRANCH  16  19
ATOM     19  C   UNL     1      -2.971  11.918  32.588  0.00  0.00    +0.332 C 
ATOM     20  O   UNL     1      -3.044  12.938  33.264  0.00  0.00    -0.248 OA
BRANCH  19  21
ATOM     21  O   UNL     1      -1.766  11.418  32.225  0.00  0.00    -0.479 OA
ATOM     22  H   UNL     1      -0.999  11.695  32.764  0.00  0.00    +0.295 HD
ENDBRANCH  19  21
ENDBRANCH  16  19
ENDBRANCH  14  16
ENDBRANCH  10  12
ENDBRANCH   9  10
ENDBRANCH   5   9
ENDBRANCH   4   7
ENDBRANCH   1   4
BRANCH   1  23
ATOM     23  C   UNL     1      -3.814  10.612  23.757  0.00  0.00    +0.175 C 
BRANCH  23  24
ATOM     24  C   UNL     1      -4.088   9.737  24.989  0.00  0.00    +0.176 C 
ATOM     25  O   UNL     1      -2.914   8.910  25.221  0.00  0.00    -0.332 OA
ATOM     26  C   UNL     1      -2.952   8.079  26.428  0.00  0.00    +0.277 C 
ATOM     27  C   UNL     1      -4.224   7.197  26.437  0.00  0.00    +0.110 C 
ATOM     28  C   UNL     1      -5.495   8.028  26.164  0.00  0.00    +0.143 C 
ATOM     29  C   UNL     1      -5.346   8.856  24.887  0.00  0.00    +0.133 C 
BRANCH  29  30
ATOM     30  N   UNL     1      -6.528   9.708  24.684  0.00  0.00    -0.308 N 
ATOM     31  H   UNL     1      -6.730  10.408  25.384  0.00  0.00    +0.149 HD
ATOM     32  C   UNL     1      -7.351   9.617  23.636  0.00  0.00    +0.210 C 
ATOM     33  C   UNL     1      -7.030   8.523  22.601  0.00  0.00    +0.109 C 
ATOM     34  O   UNL     1      -8.326  10.354  23.485  0.00  0.00    -0.276 OA
ENDBRANCH  29  30
BRANCH  26  35
ATOM     35  C   UNL     1      -2.923   8.956  27.697  0.00  0.00    +0.414 C 
ATOM     36  O   UNL     1      -3.637   8.677  28.659  0.00  0.00    -0.240 OA
ATOM     37  O   UNL     1      -2.187   9.942  27.758  0.00  0.00    -0.240 OA
ENDBRANCH  26  35
BRANCH  26  38
ATOM     38  O   UNL     1      -1.791   7.209  26.410  0.00  0.00    -0.343 OA
ATOM     39  C   UNL     1      -1.954   5.956  27.122  0.00  0.00    +0.198 C 
ENDBRANCH  26  38
BRANCH  28  40
ATOM     40  O   UNL     1      -6.620   7.157  26.032  0.00  0.00    -0.390 OA
ATOM     41  H   UNL     1      -6.399   6.435  25.439  0.00  0.00    +0.210 HD
ENDBRANCH  28  40
ENDBRANCH  23  24
BRANCH  23  42
ATOM     42  O   UNL     1      -3.232   9.818  22.704  0.00  0.00    -0.387 OA
ATOM     43  H   UNL     1      -3.922   9.314  22.264  0.00  0.00    +0.210 HD
ENDBRANCH  23  42
ENDBRANCH   1  23
TORSDOF 16
