REMARK VINA RESULT:    -5.439      2.921      8.740
REMARK INTER + INTRA:         -11.583
REMARK INTER:                  -8.693
REMARK INTRA:                  -2.890
REMARK UNBOUND:                -2.170
REMARK  Name = lig_assembled_87.pdb
REMARK  17 active torsions:
REMARK  status: ('A' for Active; 'I' for Inactive)
REMARK    1  A    between atoms: _2  and  _10
REMARK    2  A    between atoms: _3  and  _13
REMARK    3  A    between atoms: _5  and  _21
REMARK    4  A    between atoms: _7  and  _8
REMARK    5  A    between atoms: _7  and  _21
REMARK    6  A    between atoms: _17  and  _37
REMARK    7  A    between atoms: _19  and  _25
REMARK    8  A    between atoms: _20  and  _24
REMARK    9  A    between atoms: _24  and  _25
REMARK   10  A    between atoms: _27  and  _28
REMARK   11  A    between atoms: _29  and  _30
REMARK   12  A    between atoms: _31  and  _33
REMARK   13  A    between atoms: _33  and  _34
REMARK   14  A    between atoms: _33  and  _35
REMARK   15  A    between atoms: _35  and  _36
REMARK   16  A    between atoms: _35  and  _37
REMARK   17  A    between atoms: _38  and  _40
REMARK                            x       y       z     vdW  Elec       q    Type
REMARK                         _______ _______ _______ _____ _____    ______ ____
ROOT
ATOM      1  C   UNL     1      -2.689  11.099  31.238  0.00  0.00    +0.163 C 
ENDROOT
BRANCH   1   2
ATOM      2  O   UNL     1      -2.060  11.344  32.506  0.00  0.00    -0.388 OA
ATOM      3  H   UNL     1      -2.035  12.289  32.675  0.00  0.00    +0.210 HD
ENDBRANCH   1   2
BRANCH   1   4
ATOM      4  C   UNL     1      -3.460  12.337  30.791  0.00  0.00    +0.141 C 
BRANCH   4   7
ATOM      5  C   UNL     1      -4.542  12.521  28.577  0.00  0.00    +0.401 C 
ATOM      6  O   UNL     1      -5.687  12.404  29.022  0.00  0.00    -0.226 OA
ATOM      7  N   UNL     1      -3.443  12.495  29.331  0.00  0.00    -0.279 N 
ATOM      8  H   UNL     1      -2.548  12.589  28.873  0.00  0.00    +0.152 HD
BRANCH   5   9
ATOM      9  O   UNL     1      -4.359  12.691  27.169  0.00  0.00    -0.444 OA
BRANCH   9  10
ATOM     10  C   UNL     1      -3.099  12.137  26.781  0.00  0.00    +0.292 C 
BRANCH  10  12
ATOM     11  N   UNL     1      -2.541  10.781  24.792  0.00  0.00    -0.131 NA
ATOM     12  C   UNL     1      -3.066  11.927  25.322  0.00  0.00    +0.120 A 
ATOM     13  C   UNL     1      -3.517  12.730  24.300  0.00  0.00    +0.137 A 
ATOM     14  N   UNL     1      -3.355  11.969  23.173  0.00  0.00    -0.248 N 
ATOM     15  N   UNL     1      -2.661  10.852  23.478  0.00  0.00    -0.065 NA
BRANCH  14  16
ATOM     16  C   UNL     1      -3.788  12.193  21.782  0.00  0.00    +0.112 C 
ATOM     17  C   UNL     1      -5.216  12.786  21.631  0.00  0.00    +0.045 C 
ATOM     18  C   UNL     1      -6.214  11.929  20.835  0.00  0.00    +0.059 C 
ATOM     19  C   UNL     1      -5.994  12.048  19.320  0.00  0.00    +0.020 C 
ATOM     20  C   UNL     1      -5.119  10.849  18.960  0.00  0.00    +0.020 C 
ATOM     21  C   UNL     1      -4.756  10.238  20.315  0.00  0.00    +0.059 C 
ATOM     22  N   UNL     1      -6.004  10.500  21.026  0.00  0.00    -0.299 NA
ATOM     23  C   UNL     1      -6.132   9.978  22.370  0.00  0.00    +0.105 C 
ATOM     24  C   UNL     1      -3.526  10.932  20.903  0.00  0.00    +0.045 C 
ENDBRANCH  14  16
ENDBRANCH  10  12
ENDBRANCH   9  10
ENDBRANCH   5   9
ENDBRANCH   4   7
ENDBRANCH   1   4
BRANCH   1  25
ATOM     25  C   UNL     1      -3.648   9.899  31.322  0.00  0.00    +0.175 C 
BRANCH  25  26
ATOM     26  C   UNL     1      -3.360   8.853  30.235  0.00  0.00    +0.176 C 
ATOM     27  O   UNL     1      -4.002   9.296  29.007  0.00  0.00    -0.332 OA
ATOM     28  C   UNL     1      -3.746   8.468  27.824  0.00  0.00    +0.277 C 
ATOM     29  C   UNL     1      -4.118   6.992  28.106  0.00  0.00    +0.110 C 
ATOM     30  C   UNL     1      -3.484   6.485  29.419  0.00  0.00    +0.143 C 
ATOM     31  C   UNL     1      -3.811   7.422  30.583  0.00  0.00    +0.133 C 
BRANCH  31  32
ATOM     32  N   UNL     1      -3.131   6.977  31.809  0.00  0.00    -0.308 N 
ATOM     33  H   UNL     1      -2.122   6.928  31.798  0.00  0.00    +0.149 HD
ATOM     34  C   UNL     1      -3.760   6.632  32.936  0.00  0.00    +0.210 C 
ATOM     35  C   UNL     1      -5.299   6.692  32.913  0.00  0.00    +0.109 C 
ATOM     36  O   UNL     1      -3.163   6.277  33.953  0.00  0.00    -0.276 OA
ENDBRANCH  31  32
BRANCH  28  37
ATOM     37  C   UNL     1      -2.263   8.556  27.406  0.00  0.00    +0.414 C 
ATOM     38  O   UNL     1      -1.508   9.353  27.961  0.00  0.00    -0.240 OA
ATOM     39  O   UNL     1      -1.822   7.829  26.514  0.00  0.00    -0.240 OA
ENDBRANCH  28  37
BRANCH  30  40
ATOM     40  O   UNL     1      -3.973   5.177  29.716  0.00  0.00    -0.390 OA
ATOM     41  H   UNL     1      -4.858   5.076  29.358  0.00  0.00    +0.210 HD
ENDBRANCH  30  40
BRANCH  28  42
ATOM     42  O   UNL     1      -4.587   8.954  26.747  0.00  0.00    -0.343 OA
ATOM     43  C   UNL     1      -5.940   9.301  27.135  0.00  0.00    +0.198 C 
ENDBRANCH  28  42
ENDBRANCH  25  26
BRANCH  25  44
ATOM     44  O   UNL     1      -5.015  10.348  31.230  0.00  0.00    -0.387 OA
ATOM     45  H   UNL     1      -5.033  11.264  30.945  0.00  0.00    +0.210 HD
ENDBRANCH  25  44
ENDBRANCH   1  25
TORSDOF 14
