REMARK VINA RESULT:    -4.313      2.481      4.710
REMARK INTER + INTRA:         -11.379
REMARK INTER:                  -8.995
REMARK INTRA:                  -2.383
REMARK UNBOUND:                -3.914
REMARK  Name = lig_assembled_20.pdb
REMARK  16 active torsions:
REMARK  status: ('A' for Active; 'I' for Inactive)
REMARK    1  A    between atoms: _2  and  _11
REMARK    2  A    between atoms: _6  and  _21
REMARK    3  A    between atoms: _8  and  _9
REMARK    4  A    between atoms: _8  and  _21
REMARK    5  A    between atoms: _17  and  _37
REMARK    6  A    between atoms: _19  and  _25
REMARK    7  A    between atoms: _20  and  _24
REMARK    8  A    between atoms: _24  and  _25
REMARK    9  A    between atoms: _27  and  _28
REMARK   10  A    between atoms: _29  and  _30
REMARK   11  A    between atoms: _31  and  _33
REMARK   12  A    between atoms: _33  and  _34
REMARK   13  A    between atoms: _33  and  _35
REMARK   14  A    between atoms: _35  and  _36
REMARK   15  A    between atoms: _35  and  _37
REMARK   16  A    between atoms: _38  and  _40
REMARK                            x       y       z     vdW  Elec       q    Type
REMARK                         _______ _______ _______ _____ _____    ______ ____
ROOT
ATOM      1  C   UNL     1      -4.292   9.006  23.827  0.00  0.00    +0.163 C 
ENDROOT
BRANCH   1   2
ATOM      2  O   UNL     1      -3.819   8.344  22.643  0.00  0.00    -0.388 OA
ATOM      3  H   UNL     1      -2.886   8.138  22.741  0.00  0.00    +0.210 HD
ENDBRANCH   1   2
BRANCH   1   4
ATOM      4  C   UNL     1      -4.341   8.022  24.991  0.00  0.00    +0.141 C 
BRANCH   4   7
ATOM      5  C   UNL     1      -2.653   8.414  26.753  0.00  0.00    +0.401 C 
ATOM      6  O   UNL     1      -1.809   7.677  26.239  0.00  0.00    -0.226 OA
ATOM      7  N   UNL     1      -3.866   8.628  26.241  0.00  0.00    -0.279 N 
ATOM      8  H   UNL     1      -4.493   9.242  26.741  0.00  0.00    +0.152 HD
BRANCH   5   9
ATOM      9  O   UNL     1      -2.337   9.086  27.975  0.00  0.00    -0.444 OA
BRANCH   9  10
ATOM     10  C   UNL     1      -3.534   9.289  28.732  0.00  0.00    +0.292 C 
BRANCH  10  12
ATOM     11  N   UNL     1      -2.849   9.599  31.095  0.00  0.00    -0.131 NA
ATOM     12  C   UNL     1      -3.264  10.134  29.911  0.00  0.00    +0.121 A 
ATOM     13  C   UNL     1      -3.364  11.498  30.045  0.00  0.00    +0.143 A 
ATOM     14  N   UNL     1      -2.996  11.759  31.345  0.00  0.00    -0.220 N 
ATOM     15  N   UNL     1      -2.688  10.592  31.963  0.00  0.00    -0.060 NA
BRANCH  14  16
ATOM     16  C   UNL     1      -2.923  13.013  32.006  0.00  0.00    +0.068 A 
ATOM     17  C   UNL     1      -2.147  13.145  33.170  0.00  0.00    +0.030 A 
ATOM     18  C   UNL     1      -2.050  14.370  33.845  0.00  0.00    +0.030 A 
ATOM     19  C   UNL     1      -2.756  15.451  33.310  0.00  0.00    +0.066 A 
ATOM     20  C   UNL     1      -3.533  15.353  32.163  0.00  0.00    +0.021 A 
ATOM     21  C   UNL     1      -4.061  16.648  31.977  0.00  0.00    +0.142 A 
ATOM     22  N   UNL     1      -3.661  17.507  32.918  0.00  0.00    -0.181 NA
ATOM     23  N   UNL     1      -2.872  16.758  33.708  0.00  0.00    -0.277 N 
ATOM     24  H   UNL     1      -2.440  17.198  34.513  0.00  0.00    +0.189 HD
ATOM     25  C   UNL     1      -3.625  14.120  31.493  0.00  0.00    +0.039 A 
ENDBRANCH  14  16
ENDBRANCH  10  12
ENDBRANCH   9  10
ENDBRANCH   5   9
ENDBRANCH   4   7
ENDBRANCH   1   4
BRANCH   1  26
ATOM     26  C   UNL     1      -5.691   9.605  23.602  0.00  0.00    +0.175 C 
BRANCH  26  27
ATOM     27  C   UNL     1      -5.633  10.937  22.839  0.00  0.00    +0.176 C 
ATOM     28  O   UNL     1      -5.331  10.643  21.447  0.00  0.00    -0.332 OA
ATOM     29  C   UNL     1      -5.340  11.794  20.540  0.00  0.00    +0.277 C 
ATOM     30  C   UNL     1      -4.388  12.900  21.059  0.00  0.00    +0.110 C 
ATOM     31  C   UNL     1      -4.650  13.225  22.545  0.00  0.00    +0.143 C 
ATOM     32  C   UNL     1      -4.621  11.956  23.397  0.00  0.00    +0.133 C 
BRANCH  32  33
ATOM     33  N   UNL     1      -4.958  12.267  24.796  0.00  0.00    -0.308 N 
ATOM     34  H   UNL     1      -5.921  12.482  25.012  0.00  0.00    +0.149 HD
ATOM     35  C   UNL     1      -4.074  12.282  25.797  0.00  0.00    +0.210 C 
ATOM     36  C   UNL     1      -2.610  11.975  25.429  0.00  0.00    +0.109 C 
ATOM     37  O   UNL     1      -4.387  12.532  26.961  0.00  0.00    -0.276 OA
ENDBRANCH  32  33
BRANCH  29  38
ATOM     38  C   UNL     1      -6.765  12.367  20.396  0.00  0.00    +0.414 C 
ATOM     39  O   UNL     1      -7.742  11.619  20.446  0.00  0.00    -0.240 OA
ATOM     40  O   UNL     1      -6.939  13.575  20.231  0.00  0.00    -0.240 OA
ENDBRANCH  29  38
BRANCH  31  41
ATOM     41  O   UNL     1      -3.657  14.134  23.021  0.00  0.00    -0.390 OA
ATOM     42  H   UNL     1      -2.833  13.982  22.554  0.00  0.00    +0.210 HD
ENDBRANCH  31  41
BRANCH  29  43
ATOM     43  O   UNL     1      -4.860  11.349  19.245  0.00  0.00    -0.343 OA
ATOM     44  C   UNL     1      -4.992   9.926  19.000  0.00  0.00    +0.198 C 
ENDBRANCH  29  43
ENDBRANCH  26  27
BRANCH  26  45
ATOM     45  O   UNL     1      -6.364   9.784  24.864  0.00  0.00    -0.387 OA
ATOM     46  H   UNL     1      -6.804  10.637  24.874  0.00  0.00    +0.210 HD
ENDBRANCH  26  45
ENDBRANCH   1  26
TORSDOF 14
