REMARK VINA RESULT:    -4.149      2.388      5.790
REMARK INTER + INTRA:         -11.265
REMARK INTER:                  -8.182
REMARK INTRA:                  -3.083
REMARK UNBOUND:                -3.721
REMARK  Name = lig_assembled_35.pdb
REMARK  19 active torsions:
REMARK  status: ('A' for Active; 'I' for Inactive)
REMARK    1  A    between atoms: _2  and  _9
REMARK    2  A    between atoms: _4  and  _17
REMARK    3  A    between atoms: _5  and  _9
REMARK    4  A    between atoms: _5  and  _11
REMARK    5  A    between atoms: _6  and  _7
REMARK    6  A    between atoms: _6  and  _17
REMARK    7  A    between atoms: _9  and  _10
REMARK    8  A    between atoms: _13  and  _33
REMARK    9  A    between atoms: _15  and  _21
REMARK   10  A    between atoms: _16  and  _20
REMARK   11  A    between atoms: _20  and  _21
REMARK   12  A    between atoms: _23  and  _24
REMARK   13  A    between atoms: _25  and  _26
REMARK   14  A    between atoms: _27  and  _29
REMARK   15  A    between atoms: _29  and  _30
REMARK   16  A    between atoms: _29  and  _31
REMARK   17  A    between atoms: _31  and  _32
REMARK   18  A    between atoms: _31  and  _33
REMARK   19  A    between atoms: _34  and  _36
REMARK                            x       y       z     vdW  Elec       q    Type
REMARK                         _______ _______ _______ _____ _____    ______ ____
ROOT
ATOM      1  C   UNL     1      -4.036   8.954  30.865  0.00  0.00    +0.163 C 
ENDROOT
BRANCH   1   2
ATOM      2  O   UNL     1      -2.889   9.606  31.435  0.00  0.00    -0.388 OA
ATOM      3  H   UNL     1      -2.996   9.668  32.387  0.00  0.00    +0.210 HD
ENDBRANCH   1   2
BRANCH   1   4
ATOM      4  C   UNL     1      -5.003   9.981  30.251  0.00  0.00    +0.175 C 
BRANCH   4   5
ATOM      5  C   UNL     1      -4.546  11.426  30.498  0.00  0.00    +0.176 C 
ATOM      6  O   UNL     1      -4.660  11.693  31.923  0.00  0.00    -0.332 OA
ATOM      7  C   UNL     1      -4.165  13.000  32.364  0.00  0.00    +0.277 C 
ATOM      8  C   UNL     1      -4.846  14.136  31.562  0.00  0.00    +0.110 C 
ATOM      9  C   UNL     1      -4.778  13.880  30.042  0.00  0.00    +0.143 C 
ATOM     10  C   UNL     1      -5.315  12.491  29.695  0.00  0.00    +0.133 C 
BRANCH  10  11
ATOM     11  N   UNL     1      -5.165  12.225  28.256  0.00  0.00    -0.308 N 
ATOM     12  H   UNL     1      -4.232  12.249  27.867  0.00  0.00    +0.149 HD
ATOM     13  C   UNL     1      -6.179  11.955  27.430  0.00  0.00    +0.210 C 
ATOM     14  C   UNL     1      -7.590  11.953  28.048  0.00  0.00    +0.109 C 
ATOM     15  O   UNL     1      -6.022  11.722  26.231  0.00  0.00    -0.276 OA
ENDBRANCH  10  11
BRANCH   7  16
ATOM     16  C   UNL     1      -2.635  13.092  32.190  0.00  0.00    +0.414 C 
ATOM     17  O   UNL     1      -2.102  14.174  31.943  0.00  0.00    -0.240 OA
ATOM     18  O   UNL     1      -1.933  12.086  32.298  0.00  0.00    -0.240 OA
ENDBRANCH   7  16
BRANCH   7  19
ATOM     19  O   UNL     1      -4.507  13.160  33.765  0.00  0.00    -0.343 OA
ATOM     20  C   UNL     1      -4.842  14.514  34.163  0.00  0.00    +0.198 C 
ENDBRANCH   7  19
BRANCH   9  21
ATOM     21  O   UNL     1      -5.545  14.868  29.352  0.00  0.00    -0.390 OA
ATOM     22  H   UNL     1      -5.192  15.739  29.544  0.00  0.00    +0.210 HD
ENDBRANCH   9  21
ENDBRANCH   4   5
BRANCH   4  23
ATOM     23  O   UNL     1      -6.333   9.784  30.772  0.00  0.00    -0.387 OA
ATOM     24  H   UNL     1      -6.932  10.417  30.369  0.00  0.00    +0.210 HD
ENDBRANCH   4  23
ENDBRANCH   1   4
BRANCH   1  25
ATOM     25  C   UNL     1      -3.594   7.965  29.792  0.00  0.00    +0.141 C 
BRANCH  25  28
ATOM     26  C   UNL     1      -2.036   8.130  27.881  0.00  0.00    +0.401 C 
ATOM     27  O   UNL     1      -1.507   7.037  28.097  0.00  0.00    -0.226 OA
ATOM     28  N   UNL     1      -3.014   8.644  28.626  0.00  0.00    -0.279 N 
ATOM     29  H   UNL     1      -3.378   9.553  28.375  0.00  0.00    +0.152 HD
BRANCH  26  30
ATOM     30  O   UNL     1      -1.586   8.912  26.772  0.00  0.00    -0.444 OA
BRANCH  30  31
ATOM     31  C   UNL     1      -2.120  10.235  26.872  0.00  0.00    +0.292 C 
BRANCH  31  33
ATOM     32  N   UNL     1      -2.996   9.798  24.599  0.00  0.00    -0.131 NA
ATOM     33  C   UNL     1      -2.597  10.695  25.553  0.00  0.00    +0.120 A 
ATOM     34  C   UNL     1      -2.725  11.972  25.052  0.00  0.00    +0.138 A 
ATOM     35  N   UNL     1      -3.222  11.784  23.795  0.00  0.00    -0.238 N 
ATOM     36  N   UNL     1      -3.362  10.476  23.520  0.00  0.00    -0.065 NA
BRANCH  35  37
ATOM     37  C   UNL     1      -3.562  12.761  22.779  0.00  0.00    +0.214 C 
ATOM     38  C   UNL     1      -3.160  12.269  21.392  0.00  0.00    +0.045 C 
BRANCH  37  39
ATOM     39  C   UNL     1      -5.026  13.145  22.846  0.00  0.00    +0.329 C 
ATOM     40  O   UNL     1      -5.487  14.194  22.415  0.00  0.00    -0.249 OA
BRANCH  39  41
ATOM     41  O   UNL     1      -5.817  12.231  23.462  0.00  0.00    -0.479 OA
ATOM     42  H   UNL     1      -5.653  11.296  23.221  0.00  0.00    +0.295 HD
ENDBRANCH  39  41
ENDBRANCH  37  39
ENDBRANCH  35  37
ENDBRANCH  31  33
ENDBRANCH  30  31
ENDBRANCH  26  30
ENDBRANCH  25  28
ENDBRANCH   1  25
TORSDOF 16
