REMARK VINA RESULT:    -4.160      2.496      8.478
REMARK INTER + INTRA:         -13.500
REMARK INTER:                  -8.679
REMARK INTRA:                  -4.821
REMARK UNBOUND:                -3.746
REMARK  Name = lig_assembled_30.pdb
REMARK  27 active torsions:
REMARK  status: ('A' for Active; 'I' for Inactive)
REMARK    1  A    between atoms: _2  and  _9
REMARK    2  A    between atoms: _4  and  _25
REMARK    3  A    between atoms: _5  and  _18
REMARK    4  A    between atoms: _5  and  _19
REMARK    5  A    between atoms: _6  and  _7
REMARK    6  A    between atoms: _6  and  _25
REMARK    7  A    between atoms: _9  and  _10
REMARK    8  A    between atoms: _10  and  _11
REMARK    9  A    between atoms: _11  and  _12
REMARK   10  A    between atoms: _12  and  _13
REMARK   11  A    between atoms: _13  and  _14
REMARK   12  A    between atoms: _14  and  _15
REMARK   13  A    between atoms: _15  and  _16
REMARK   14  A    between atoms: _16  and  _17
REMARK   15  A    between atoms: _17  and  _18
REMARK   16  A    between atoms: _21  and  _41
REMARK   17  A    between atoms: _23  and  _29
REMARK   18  A    between atoms: _24  and  _28
REMARK   19  A    between atoms: _28  and  _29
REMARK   20  A    between atoms: _31  and  _32
REMARK   21  A    between atoms: _33  and  _34
REMARK   22  A    between atoms: _35  and  _37
REMARK   23  A    between atoms: _37  and  _38
REMARK   24  A    between atoms: _37  and  _39
REMARK   25  A    between atoms: _39  and  _40
REMARK   26  A    between atoms: _39  and  _41
REMARK   27  A    between atoms: _42  and  _44
REMARK                            x       y       z     vdW  Elec       q    Type
REMARK                         _______ _______ _______ _____ _____    ______ ____
ROOT
ATOM      1  C   UNL     1      -2.939  11.172  25.193  0.00  0.00    +0.401 C 
ATOM      2  O   UNL     1      -2.055  12.025  25.083  0.00  0.00    -0.226 OA
ATOM      3  N   UNL     1      -3.883  11.195  26.135  0.00  0.00    -0.279 N 
ATOM      4  H   UNL     1      -4.572  10.455  26.137  0.00  0.00    +0.152 HD
ENDROOT
BRANCH   1   5
ATOM      5  O   UNL     1      -2.977  10.087  24.263  0.00  0.00    -0.444 OA
BRANCH   5   6
ATOM      6  C   UNL     1      -4.027   9.185  24.623  0.00  0.00    +0.292 C 
BRANCH   6   8
ATOM      7  N   UNL     1      -4.100   7.999  22.452  0.00  0.00    -0.131 NA
ATOM      8  C   UNL     1      -4.743   8.726  23.419  0.00  0.00    +0.120 A 
ATOM      9  C   UNL     1      -6.056   8.910  23.047  0.00  0.00    +0.137 A 
ATOM     10  N   UNL     1      -6.146   8.272  21.847  0.00  0.00    -0.251 N 
ATOM     11  N   UNL     1      -4.973   7.727  21.490  0.00  0.00    -0.065 NA
BRANCH  10  12
ATOM     12  C   UNL     1      -7.296   8.179  20.975  0.00  0.00    +0.145 C 
BRANCH  12  13
ATOM     13  C   UNL     1      -7.571   9.508  20.279  0.00  0.00    +0.023 C 
BRANCH  13  14
ATOM     14  C   UNL     1      -7.133   9.489  18.816  0.00  0.00    +0.002 C 
BRANCH  14  15
ATOM     15  C   UNL     1      -6.743  10.896  18.364  0.00  0.00    +0.000 C 
BRANCH  15  16
ATOM     16  C   UNL     1      -5.257  10.993  18.032  0.00  0.00    +0.000 C 
BRANCH  16  17
ATOM     17  C   UNL     1      -4.531  11.876  19.048  0.00  0.00    +0.000 C 
BRANCH  17  18
ATOM     18  C   UNL     1      -4.033  11.049  20.231  0.00  0.00    +0.000 C 
BRANCH  18  19
ATOM     19  C   UNL     1      -4.263  11.770  21.559  0.00  0.00    +0.001 C 
BRANCH  19  20
ATOM     20  C   UNL     1      -5.232  12.936  21.373  0.00  0.00    +0.011 C 
BRANCH  20  21
ATOM     21  C   UNL     1      -6.372  12.897  22.387  0.00  0.00    +0.120 C 
BRANCH  21  22
ATOM     22  C   UNL     1      -5.854  12.967  23.805  0.00  0.00    +0.305 C 
ATOM     23  O   UNL     1      -5.112  13.831  24.246  0.00  0.00    -0.251 OA
BRANCH  22  24
ATOM     24  O   UNL     1      -6.305  11.946  24.570  0.00  0.00    -0.481 OA
ATOM     25  H   UNL     1      -6.260  11.077  24.129  0.00  0.00    +0.295 HD
ENDBRANCH  22  24
ENDBRANCH  21  22
ENDBRANCH  20  21
ENDBRANCH  19  20
ENDBRANCH  18  19
ENDBRANCH  17  18
ENDBRANCH  16  17
ENDBRANCH  15  16
ENDBRANCH  14  15
ENDBRANCH  13  14
ENDBRANCH  12  13
ENDBRANCH  10  12
ENDBRANCH   6   8
ENDBRANCH   5   6
ENDBRANCH   1   5
BRANCH   3  26
ATOM     26  C   UNL     1      -3.978  12.233  27.168  0.00  0.00    +0.141 C 
BRANCH  26  27
ATOM     27  C   UNL     1      -5.368  12.288  27.793  0.00  0.00    +0.163 C 
BRANCH  27  28
ATOM     28  O   UNL     1      -6.153  11.170  27.346  0.00  0.00    -0.388 OA
ATOM     29  H   UNL     1      -5.794  10.359  27.714  0.00  0.00    +0.210 HD
ENDBRANCH  27  28
BRANCH  27  30
ATOM     30  C   UNL     1      -5.243  12.293  29.326  0.00  0.00    +0.175 C 
BRANCH  30  31
ATOM     31  C   UNL     1      -4.346  11.155  29.837  0.00  0.00    +0.176 C 
ATOM     32  O   UNL     1      -5.140   9.938  29.865  0.00  0.00    -0.332 OA
ATOM     33  C   UNL     1      -4.416   8.716  30.228  0.00  0.00    +0.277 C 
ATOM     34  C   UNL     1      -3.692   8.900  31.585  0.00  0.00    +0.110 C 
ATOM     35  C   UNL     1      -2.859  10.199  31.614  0.00  0.00    +0.143 C 
ATOM     36  C   UNL     1      -3.710  11.406  31.217  0.00  0.00    +0.133 C 
BRANCH  36  37
ATOM     37  N   UNL     1      -2.885  12.623  31.164  0.00  0.00    -0.308 N 
ATOM     38  H   UNL     1      -2.139  12.658  30.483  0.00  0.00    +0.149 HD
ATOM     39  C   UNL     1      -3.057  13.684  31.957  0.00  0.00    +0.210 C 
ATOM     40  C   UNL     1      -4.186  13.588  33.002  0.00  0.00    +0.109 C 
ATOM     41  O   UNL     1      -2.360  14.696  31.881  0.00  0.00    -0.276 OA
ENDBRANCH  36  37
BRANCH  33  42
ATOM     42  C   UNL     1      -3.386   8.347  29.141  0.00  0.00    +0.414 C 
ATOM     43  O   UNL     1      -3.594   8.640  27.964  0.00  0.00    -0.240 OA
ATOM     44  O   UNL     1      -2.348   7.755  29.439  0.00  0.00    -0.240 OA
ENDBRANCH  33  42
BRANCH  35  45
ATOM     45  O   UNL     1      -2.334  10.405  32.927  0.00  0.00    -0.390 OA
ATOM     46  H   UNL     1      -1.469   9.995  32.994  0.00  0.00    +0.210 HD
ENDBRANCH  35  45
BRANCH  33  47
ATOM     47  O   UNL     1      -5.384   7.645  30.368  0.00  0.00    -0.343 OA
ATOM     48  C   UNL     1      -6.726   7.970  29.925  0.00  0.00    +0.198 C 
ENDBRANCH  33  47
ENDBRANCH  30  31
BRANCH  30  49
ATOM     49  O   UNL     1      -6.548  12.206  29.932  0.00  0.00    -0.387 OA
ATOM     50  H   UNL     1      -6.779  13.054  30.319  0.00  0.00    +0.210 HD
ENDBRANCH  30  49
ENDBRANCH  27  30
ENDBRANCH  26  27
ENDBRANCH   3  26
TORSDOF 25
