REMARK VINA RESULT:    -3.953      2.491      3.587
REMARK INTER + INTRA:         -11.296
REMARK INTER:                  -7.265
REMARK INTRA:                  -4.030
REMARK UNBOUND:                -4.108
REMARK  Name = lig_assembled_53.pdb
REMARK  18 active torsions:
REMARK  status: ('A' for Active; 'I' for Inactive)
REMARK    1  A    between atoms: _2  and  _9
REMARK    2  A    between atoms: _4  and  _16
REMARK    3  A    between atoms: _5  and  _9
REMARK    4  A    between atoms: _5  and  _10
REMARK    5  A    between atoms: _6  and  _7
REMARK    6  A    between atoms: _6  and  _16
REMARK    7  A    between atoms: _12  and  _32
REMARK    8  A    between atoms: _14  and  _20
REMARK    9  A    between atoms: _15  and  _19
REMARK   10  A    between atoms: _19  and  _20
REMARK   11  A    between atoms: _22  and  _23
REMARK   12  A    between atoms: _24  and  _25
REMARK   13  A    between atoms: _26  and  _28
REMARK   14  A    between atoms: _28  and  _29
REMARK   15  A    between atoms: _28  and  _30
REMARK   16  A    between atoms: _30  and  _31
REMARK   17  A    between atoms: _30  and  _32
REMARK   18  A    between atoms: _33  and  _35
REMARK                            x       y       z     vdW  Elec       q    Type
REMARK                         _______ _______ _______ _____ _____    ______ ____
ROOT
ATOM      1  C   UNL     1      -2.994  11.811  23.067  0.00  0.00    +0.175 C 
ENDROOT
BRANCH   1   2
ATOM      2  C   UNL     1      -3.321  11.276  24.469  0.00  0.00    +0.176 C 
ATOM      3  O   UNL     1      -3.128   9.834  24.454  0.00  0.00    -0.332 OA
ATOM      4  C   UNL     1      -3.293   9.159  25.744  0.00  0.00    +0.277 C 
ATOM      5  C   UNL     1      -4.674   9.495  26.358  0.00  0.00    +0.110 C 
ATOM      6  C   UNL     1      -4.938  11.016  26.367  0.00  0.00    +0.143 C 
ATOM      7  C   UNL     1      -4.735  11.616  24.975  0.00  0.00    +0.133 C 
BRANCH   7   8
ATOM      8  N   UNL     1      -4.905  13.077  25.014  0.00  0.00    -0.308 N 
ATOM      9  H   UNL     1      -4.211  13.619  25.510  0.00  0.00    +0.149 HD
ATOM     10  C   UNL     1      -5.915  13.733  24.437  0.00  0.00    +0.210 C 
ATOM     11  C   UNL     1      -6.969  12.876  23.711  0.00  0.00    +0.109 C 
ATOM     12  O   UNL     1      -6.024  14.959  24.474  0.00  0.00    -0.276 OA
ENDBRANCH   7   8
BRANCH   4  13
ATOM     13  C   UNL     1      -2.177   9.575  26.726  0.00  0.00    +0.414 C 
ATOM     14  O   UNL     1      -2.436   9.764  27.914  0.00  0.00    -0.240 OA
ATOM     15  O   UNL     1      -1.020   9.721  26.330  0.00  0.00    -0.240 OA
ENDBRANCH   4  13
BRANCH   4  16
ATOM     16  O   UNL     1      -3.231   7.728  25.513  0.00  0.00    -0.343 OA
ATOM     17  C   UNL     1      -3.964   6.921  26.469  0.00  0.00    +0.198 C 
ENDBRANCH   4  16
BRANCH   6  18
ATOM     18  O   UNL     1      -6.276  11.269  26.798  0.00  0.00    -0.390 OA
ATOM     19  H   UNL     1      -6.550  12.139  26.498  0.00  0.00    +0.210 HD
ENDBRANCH   6  18
ENDBRANCH   1   2
BRANCH   1  20
ATOM     20  O   UNL     1      -2.845  13.244  23.105  0.00  0.00    -0.387 OA
ATOM     21  H   UNL     1      -2.125  13.507  22.527  0.00  0.00    +0.210 HD
ENDBRANCH   1  20
BRANCH   1  22
ATOM     22  C   UNL     1      -4.063  11.417  22.033  0.00  0.00    +0.163 C 
BRANCH  22  23
ATOM     23  O   UNL     1      -3.680  10.225  21.327  0.00  0.00    -0.388 OA
ATOM     24  H   UNL     1      -2.776   9.994  21.555  0.00  0.00    +0.210 HD
ENDBRANCH  22  23
BRANCH  22  25
ATOM     25  C   UNL     1      -4.268  12.564  21.049  0.00  0.00    +0.141 C 
BRANCH  25  28
ATOM     26  C   UNL     1      -6.006  12.327  19.309  0.00  0.00    +0.401 C 
ATOM     27  O   UNL     1      -6.857  12.957  19.940  0.00  0.00    -0.226 OA
ATOM     28  N   UNL     1      -4.771  12.090  19.754  0.00  0.00    -0.279 N 
ATOM     29  H   UNL     1      -4.147  11.555  19.167  0.00  0.00    +0.152 HD
BRANCH  26  30
ATOM     30  O   UNL     1      -6.341  11.806  18.020  0.00  0.00    -0.444 OA
BRANCH  30  31
ATOM     31  C   UNL     1      -7.261  10.721  18.169  0.00  0.00    +0.292 C 
BRANCH  31  33
ATOM     32  N   UNL     1      -5.392   9.208  18.764  0.00  0.00    -0.131 NA
ATOM     33  C   UNL     1      -6.667   9.650  18.991  0.00  0.00    +0.120 A 
ATOM     34  C   UNL     1      -7.207   8.945  20.043  0.00  0.00    +0.137 A 
ATOM     35  N   UNL     1      -6.238   8.045  20.373  0.00  0.00    -0.241 N 
ATOM     36  N   UNL     1      -5.130   8.239  19.630  0.00  0.00    -0.065 NA
BRANCH  35  37
ATOM     37  C   UNL     1      -6.184   7.080  21.452  0.00  0.00    +0.265 C 
BRANCH  37  38
ATOM     38  C   UNL     1      -5.535   7.567  22.719  0.00  0.00    +0.326 C 
ATOM     39  O   UNL     1      -6.091   7.809  23.780  0.00  0.00    -0.249 OA
BRANCH  38  40
ATOM     40  O   UNL     1      -4.193   7.743  22.582  0.00  0.00    -0.479 OA
ATOM     41  H   UNL     1      -3.700   6.987  22.210  0.00  0.00    +0.295 HD
ENDBRANCH  38  40
ENDBRANCH  37  38
ENDBRANCH  35  37
ENDBRANCH  31  33
ENDBRANCH  30  31
ENDBRANCH  26  30
ENDBRANCH  25  28
ENDBRANCH  22  25
ENDBRANCH   1  22
TORSDOF 16
