REMARK VINA RESULT:    -3.662      2.075      4.520
REMARK INTER + INTRA:         -11.691
REMARK INTER:                  -8.219
REMARK INTRA:                  -3.473
REMARK UNBOUND:                -4.711
REMARK  Name = lig_assembled_62.pdb
REMARK  20 active torsions:
REMARK  status: ('A' for Active; 'I' for Inactive)
REMARK    1  A    between atoms: _2  and  _10
REMARK    2  A    between atoms: _5  and  _19
REMARK    3  A    between atoms: _6  and  _10
REMARK    4  A    between atoms: _7  and  _8
REMARK    5  A    between atoms: _7  and  _19
REMARK    6  A    between atoms: _10  and  _11
REMARK    7  A    between atoms: _11  and  _14
REMARK    8  A    between atoms: _12  and  _14
REMARK    9  A    between atoms: _15  and  _35
REMARK   10  A    between atoms: _17  and  _23
REMARK   11  A    between atoms: _18  and  _22
REMARK   12  A    between atoms: _22  and  _23
REMARK   13  A    between atoms: _25  and  _26
REMARK   14  A    between atoms: _27  and  _28
REMARK   15  A    between atoms: _29  and  _31
REMARK   16  A    between atoms: _31  and  _32
REMARK   17  A    between atoms: _31  and  _33
REMARK   18  A    between atoms: _33  and  _34
REMARK   19  A    between atoms: _33  and  _35
REMARK   20  A    between atoms: _36  and  _38
REMARK                            x       y       z     vdW  Elec       q    Type
REMARK                         _______ _______ _______ _____ _____    ______ ____
ROOT
ATOM      1  C   UNL     1      -2.948  11.939  23.652  0.00  0.00    +0.163 C 
ENDROOT
BRANCH   1   2
ATOM      2  O   UNL     1      -2.121  11.794  24.818  0.00  0.00    -0.388 OA
ATOM      3  H   UNL     1      -1.338  12.344  24.726  0.00  0.00    +0.210 HD
ENDBRANCH   1   2
BRANCH   1   4
ATOM      4  C   UNL     1      -3.800  10.679  23.422  0.00  0.00    +0.175 C 
BRANCH   4   5
ATOM      5  C   UNL     1      -4.098   9.935  24.732  0.00  0.00    +0.176 C 
ATOM      6  O   UNL     1      -2.919   9.161  25.085  0.00  0.00    -0.332 OA
ATOM      7  C   UNL     1      -2.980   8.463  26.373  0.00  0.00    +0.277 C 
ATOM      8  C   UNL     1      -4.238   7.562  26.440  0.00  0.00    +0.110 C 
ATOM      9  C   UNL     1      -5.514   8.334  26.042  0.00  0.00    +0.143 C 
ATOM     10  C   UNL     1      -5.338   9.024  24.689  0.00  0.00    +0.133 C 
BRANCH  10  11
ATOM     11  N   UNL     1      -6.527   9.826  24.361  0.00  0.00    -0.308 N 
ATOM     12  H   UNL     1      -6.764  10.591  24.978  0.00  0.00    +0.149 HD
ATOM     13  C   UNL     1      -7.313   9.611  23.303  0.00  0.00    +0.210 C 
ATOM     14  C   UNL     1      -6.940   8.422  22.398  0.00  0.00    +0.109 C 
ATOM     15  O   UNL     1      -8.294  10.309  23.046  0.00  0.00    -0.276 OA
ENDBRANCH  10  11
BRANCH   7  16
ATOM     16  C   UNL     1      -3.005   9.470  27.541  0.00  0.00    +0.414 C 
ATOM     17  O   UNL     1      -3.563   9.180  28.598  0.00  0.00    -0.240 OA
ATOM     18  O   UNL     1      -2.468  10.572  27.426  0.00  0.00    -0.240 OA
ENDBRANCH   7  16
BRANCH   7  19
ATOM     19  O   UNL     1      -1.806   7.617  26.482  0.00  0.00    -0.343 OA
ATOM     20  C   UNL     1      -2.081   6.197  26.578  0.00  0.00    +0.198 C 
ENDBRANCH   7  19
BRANCH   9  21
ATOM     21  O   UNL     1      -6.619   7.433  25.971  0.00  0.00    -0.390 OA
ATOM     22  H   UNL     1      -6.301   6.548  25.777  0.00  0.00    +0.210 HD
ENDBRANCH   9  21
ENDBRANCH   4   5
BRANCH   4  23
ATOM     23  O   UNL     1      -3.142   9.798  22.490  0.00  0.00    -0.387 OA
ATOM     24  H   UNL     1      -3.767   9.519  21.816  0.00  0.00    +0.210 HD
ENDBRANCH   4  23
ENDBRANCH   1   4
BRANCH   1  25
ATOM     25  C   UNL     1      -3.862  13.150  23.807  0.00  0.00    +0.141 C 
BRANCH  25  28
ATOM     26  C   UNL     1      -5.668  13.106  25.492  0.00  0.00    +0.401 C 
ATOM     27  O   UNL     1      -6.554  12.849  24.674  0.00  0.00    -0.226 OA
ATOM     28  N   UNL     1      -4.384  13.270  25.174  0.00  0.00    -0.279 N 
ATOM     29  H   UNL     1      -3.733  13.489  25.915  0.00  0.00    +0.152 HD
BRANCH  26  30
ATOM     30  O   UNL     1      -6.017  13.247  26.872  0.00  0.00    -0.444 OA
BRANCH  30  31
ATOM     31  C   UNL     1      -5.842  11.994  27.539  0.00  0.00    +0.292 C 
BRANCH  31  33
ATOM     32  N   UNL     1      -6.267  11.641  29.953  0.00  0.00    -0.131 NA
ATOM     33  C   UNL     1      -5.515  12.211  28.961  0.00  0.00    +0.120 A 
ATOM     34  C   UNL     1      -4.500  12.946  29.533  0.00  0.00    +0.138 A 
ATOM     35  N   UNL     1      -4.696  12.797  30.875  0.00  0.00    -0.237 N 
ATOM     36  N   UNL     1      -5.757  12.004  31.122  0.00  0.00    -0.065 NA
BRANCH  35  37
ATOM     37  C   UNL     1      -3.926  13.327  31.988  0.00  0.00    +0.219 C 
BRANCH  37  38
ATOM     38  C   UNL     1      -2.970  14.405  31.502  0.00  0.00    +0.237 C 
ATOM     39  O   UNL     1      -3.292  15.571  31.289  0.00  0.00    -0.274 OA
ATOM     40  N   UNL     1      -1.661  14.028  31.362  0.00  0.00    -0.328 N 
ATOM     41  H   UNL     1      -1.311  13.111  31.607  0.00  0.00    +0.145 HD
ATOM     42  H   UNL     1      -1.001  14.729  31.048  0.00  0.00    +0.145 HD
ENDBRANCH  37  38
BRANCH  37  43
ATOM     43  C   UNL     1      -3.172  12.210  32.705  0.00  0.00    +0.195 C 
BRANCH  43  44
ATOM     44  O   UNL     1      -2.591  11.329  31.733  0.00  0.00    -0.380 OA
ATOM     45  C   UNL     1      -2.861   9.965  32.031  0.00  0.00    +0.194 C 
ENDBRANCH  43  44
ENDBRANCH  37  43
ENDBRANCH  35  37
ENDBRANCH  31  33
ENDBRANCH  30  31
ENDBRANCH  26  30
ENDBRANCH  25  28
ENDBRANCH   1  25
TORSDOF 17
