REMARK VINA RESULT:    -4.998      2.854      6.067
REMARK INTER + INTRA:         -12.087
REMARK INTER:                  -7.924
REMARK INTRA:                  -4.163
REMARK UNBOUND:                -2.560
REMARK  Name = lig_assembled_18.pdb
REMARK  19 active torsions:
REMARK  status: ('A' for Active; 'I' for Inactive)
REMARK    1  A    between atoms: _2  and  _10
REMARK    2  A    between atoms: _3  and  _12
REMARK    3  A    between atoms: _5  and  _21
REMARK    4  A    between atoms: _7  and  _8
REMARK    5  A    between atoms: _7  and  _21
REMARK    6  A    between atoms: _10  and  _11
REMARK    7  A    between atoms: _12  and  _13
REMARK    8  A    between atoms: _17  and  _37
REMARK    9  A    between atoms: _19  and  _25
REMARK   10  A    between atoms: _20  and  _24
REMARK   11  A    between atoms: _24  and  _25
REMARK   12  A    between atoms: _27  and  _28
REMARK   13  A    between atoms: _29  and  _30
REMARK   14  A    between atoms: _31  and  _33
REMARK   15  A    between atoms: _33  and  _34
REMARK   16  A    between atoms: _33  and  _35
REMARK   17  A    between atoms: _35  and  _36
REMARK   18  A    between atoms: _35  and  _37
REMARK   19  A    between atoms: _38  and  _40
REMARK                            x       y       z     vdW  Elec       q    Type
REMARK                         _______ _______ _______ _____ _____    ______ ____
ROOT
ATOM      1  C   UNL     1      -3.020  11.123  24.156  0.00  0.00    +0.163 C 
ENDROOT
BRANCH   1   2
ATOM      2  O   UNL     1      -1.990  11.483  25.091  0.00  0.00    -0.388 OA
ATOM      3  H   UNL     1      -2.066  12.415  25.308  0.00  0.00    +0.210 HD
ENDBRANCH   1   2
BRANCH   1   4
ATOM      4  C   UNL     1      -4.326  10.764  24.887  0.00  0.00    +0.175 C 
BRANCH   4   5
ATOM      5  C   UNL     1      -4.079   9.843  26.091  0.00  0.00    +0.176 C 
ATOM      6  O   UNL     1      -3.101   8.843  25.696  0.00  0.00    -0.332 OA
ATOM      7  C   UNL     1      -2.660   7.933  26.758  0.00  0.00    +0.277 C 
ATOM      8  C   UNL     1      -3.878   7.242  27.418  0.00  0.00    +0.110 C 
ATOM      9  C   UNL     1      -4.960   8.263  27.827  0.00  0.00    +0.143 C 
ATOM     10  C   UNL     1      -5.342   9.160  26.648  0.00  0.00    +0.133 C 
BRANCH  10  11
ATOM     11  N   UNL     1      -6.309  10.184  27.072  0.00  0.00    -0.308 N 
ATOM     12  H   UNL     1      -5.985  10.909  27.696  0.00  0.00    +0.149 HD
ATOM     13  C   UNL     1      -7.587  10.218  26.685  0.00  0.00    +0.210 C 
ATOM     14  C   UNL     1      -8.057   9.084  25.754  0.00  0.00    +0.109 C 
ATOM     15  O   UNL     1      -8.371  11.097  27.045  0.00  0.00    -0.276 OA
ENDBRANCH  10  11
BRANCH   7  16
ATOM     16  C   UNL     1      -1.855   8.695  27.831  0.00  0.00    +0.414 C 
ATOM     17  O   UNL     1      -1.953   8.383  29.017  0.00  0.00    -0.240 OA
ATOM     18  O   UNL     1      -1.108   9.621  27.511  0.00  0.00    -0.240 OA
ENDBRANCH   7  16
BRANCH   7  19
ATOM     19  O   UNL     1      -1.825   6.911  26.155  0.00  0.00    -0.343 OA
ATOM     20  C   UNL     1      -1.855   5.624  26.823  0.00  0.00    +0.198 C 
ENDBRANCH   7  19
BRANCH   9  21
ATOM     21  O   UNL     1      -6.122   7.575  28.290  0.00  0.00    -0.390 OA
ATOM     22  H   UNL     1      -6.622   8.147  28.877  0.00  0.00    +0.210 HD
ENDBRANCH   9  21
ENDBRANCH   4   5
BRANCH   4  23
ATOM     23  O   UNL     1      -5.254  10.148  23.972  0.00  0.00    -0.387 OA
ATOM     24  H   UNL     1      -4.845  10.066  23.108  0.00  0.00    +0.210 HD
ENDBRANCH   4  23
ENDBRANCH   1   4
BRANCH   1  25
ATOM     25  C   UNL     1      -3.277  12.277  23.192  0.00  0.00    +0.141 C 
BRANCH  25  28
ATOM     26  C   UNL     1      -5.127  13.914  23.258  0.00  0.00    +0.401 C 
ATOM     27  O   UNL     1      -5.568  13.601  22.150  0.00  0.00    -0.226 OA
ATOM     28  N   UNL     1      -4.056  13.351  23.820  0.00  0.00    -0.279 N 
ATOM     29  H   UNL     1      -3.765  13.683  24.729  0.00  0.00    +0.152 HD
BRANCH  26  30
ATOM     30  O   UNL     1      -5.784  14.943  24.002  0.00  0.00    -0.444 OA
BRANCH  30  31
ATOM     31  C   UNL     1      -6.880  14.382  24.729  0.00  0.00    +0.292 C 
BRANCH  31  33
ATOM     32  N   UNL     1      -5.676  13.238  26.570  0.00  0.00    -0.131 NA
ATOM     33  C   UNL     1      -6.526  14.228  26.153  0.00  0.00    +0.120 A 
ATOM     34  C   UNL     1      -6.929  14.962  27.244  0.00  0.00    +0.137 A 
ATOM     35  N   UNL     1      -6.269  14.390  28.292  0.00  0.00    -0.242 N 
ATOM     36  N   UNL     1      -5.533  13.339  27.885  0.00  0.00    -0.065 NA
BRANCH  35  37
ATOM     37  C   UNL     1      -6.373  14.696  29.698  0.00  0.00    +0.240 C 
BRANCH  37  38
ATOM     38  C   UNL     1      -5.038  14.613  30.403  0.00  0.00    +0.235 C 
ATOM     39  O   UNL     1      -4.409  15.617  30.731  0.00  0.00    -0.274 OA
ATOM     40  N   UNL     1      -4.610  13.335  30.700  0.00  0.00    -0.309 N 
ATOM     41  H   UNL     1      -5.060  12.537  30.275  0.00  0.00    +0.149 HD
BRANCH  40  42
ATOM     42  C   UNL     1      -3.357  13.099  31.387  0.00  0.00    +0.146 C 
BRANCH  42  43
ATOM     43  C   UNL     1      -3.395  11.762  32.054  0.00  0.00    +0.007 A 
ATOM     44  S   UNL     1      -4.105  11.577  33.603  0.00  0.00    -0.100 S 
ATOM     45  C   UNL     1      -3.704   9.916  33.660  0.00  0.00    +0.045 A 
ATOM     46  C   UNL     1      -3.056   9.499  32.518  0.00  0.00    +0.008 A 
ATOM     47  C   UNL     1      -2.885  10.565  31.588  0.00  0.00    +0.013 A 
ENDBRANCH  42  43
ENDBRANCH  40  42
ENDBRANCH  37  38
ENDBRANCH  35  37
ENDBRANCH  31  33
ENDBRANCH  30  31
ENDBRANCH  26  30
ENDBRANCH  25  28
ENDBRANCH   1  25
TORSDOF 17
