REMARK VINA RESULT:    -5.515      3.447      6.645
REMARK INTER + INTRA:         -12.020
REMARK INTER:                  -9.123
REMARK INTRA:                  -2.897
REMARK UNBOUND:                -2.475
REMARK  Name = lig_assembled_25.pdb
REMARK  16 active torsions:
REMARK  status: ('A' for Active; 'I' for Inactive)
REMARK    1  A    between atoms: _2  and  _9
REMARK    2  A    between atoms: _4  and  _25
REMARK    3  A    between atoms: _6  and  _7
REMARK    4  A    between atoms: _6  and  _25
REMARK    5  A    between atoms: _21  and  _41
REMARK    6  A    between atoms: _23  and  _29
REMARK    7  A    between atoms: _24  and  _28
REMARK    8  A    between atoms: _28  and  _29
REMARK    9  A    between atoms: _31  and  _32
REMARK   10  A    between atoms: _33  and  _34
REMARK   11  A    between atoms: _35  and  _37
REMARK   12  A    between atoms: _37  and  _38
REMARK   13  A    between atoms: _37  and  _39
REMARK   14  A    between atoms: _39  and  _40
REMARK   15  A    between atoms: _39  and  _41
REMARK   16  A    between atoms: _42  and  _44
REMARK                            x       y       z     vdW  Elec       q    Type
REMARK                         _______ _______ _______ _____ _____    ______ ____
ROOT
ATOM      1  C   UNL     1      -2.400   9.186  28.448  0.00  0.00    +0.141 C 
ENDROOT
BRANCH   1   4
ATOM      2  C   UNL     1      -2.911   7.391  26.829  0.00  0.00    +0.401 C 
ATOM      3  O   UNL     1      -1.754   7.312  26.409  0.00  0.00    -0.226 OA
ATOM      4  N   UNL     1      -3.303   8.243  27.777  0.00  0.00    -0.279 N 
ATOM      5  H   UNL     1      -4.276   8.240  28.049  0.00  0.00    +0.152 HD
BRANCH   2   6
ATOM      6  O   UNL     1      -3.910   6.529  26.279  0.00  0.00    -0.444 OA
BRANCH   6   7
ATOM      7  C   UNL     1      -4.952   7.317  25.695  0.00  0.00    +0.292 C 
BRANCH   7   9
ATOM      8  N   UNL     1      -3.788   7.193  23.521  0.00  0.00    -0.131 NA
ATOM      9  C   UNL     1      -4.489   7.930  24.435  0.00  0.00    +0.120 A 
ATOM     10  C   UNL     1      -4.623   9.219  23.969  0.00  0.00    +0.138 A 
ATOM     11  N   UNL     1      -3.965   9.211  22.771  0.00  0.00    -0.240 N 
ATOM     12  N   UNL     1      -3.474   7.982  22.503  0.00  0.00    -0.064 NA
BRANCH  11  13
ATOM     13  C   UNL     1      -3.675  10.305  21.859  0.00  0.00    +0.170 C 
ATOM     14  C   UNL     1      -3.727  11.664  22.544  0.00  0.00    -0.011 A 
ATOM     15  C   UNL     1      -4.637  12.509  21.871  0.00  0.00    -0.012 A 
ATOM     16  C   UNL     1      -5.226  11.780  20.766  0.00  0.00    -0.012 A 
ATOM     17  C   UNL     1      -6.136  12.191  19.805  0.00  0.00    +0.009 A 
ATOM     18  C   UNL     1      -6.517  11.278  18.817  0.00  0.00    +0.001 A 
ATOM     19  C   UNL     1      -5.994   9.974  18.801  0.00  0.00    +0.000 A 
ATOM     20  C   UNL     1      -5.077   9.557  19.769  0.00  0.00    +0.006 A 
ATOM     21  C   UNL     1      -4.837  13.810  22.302  0.00  0.00    +0.009 A 
ATOM     22  C   UNL     1      -4.116  14.262  23.412  0.00  0.00    +0.001 A 
ATOM     23  C   UNL     1      -3.209  13.419  24.075  0.00  0.00    +0.000 A 
ATOM     24  C   UNL     1      -3.004  12.108  23.643  0.00  0.00    +0.006 A 
ATOM     25  C   UNL     1      -4.702  10.467  20.746  0.00  0.00    -0.011 A 
ENDBRANCH  11  13
ENDBRANCH   7   9
ENDBRANCH   6   7
ENDBRANCH   2   6
ENDBRANCH   1   4
BRANCH   1  26
ATOM     26  C   UNL     1      -2.875  10.628  28.305  0.00  0.00    +0.163 C 
BRANCH  26  27
ATOM     27  O   UNL     1      -3.089  10.940  26.919  0.00  0.00    -0.388 OA
ATOM     28  H   UNL     1      -2.776  11.830  26.738  0.00  0.00    +0.210 HD
ENDBRANCH  26  27
BRANCH  26  29
ATOM     29  C   UNL     1      -4.164  10.828  29.120  0.00  0.00    +0.175 C 
BRANCH  29  30
ATOM     30  C   UNL     1      -4.412  12.305  29.458  0.00  0.00    +0.176 C 
ATOM     31  O   UNL     1      -4.534  12.420  30.902  0.00  0.00    -0.332 OA
ATOM     32  C   UNL     1      -4.669  13.784  31.421  0.00  0.00    +0.277 C 
ATOM     33  C   UNL     1      -5.855  14.508  30.737  0.00  0.00    +0.110 C 
ATOM     34  C   UNL     1      -5.786  14.386  29.200  0.00  0.00    +0.143 C 
ATOM     35  C   UNL     1      -5.643  12.926  28.771  0.00  0.00    +0.133 C 
BRANCH  35  36
ATOM     36  N   UNL     1      -5.491  12.831  27.310  0.00  0.00    -0.308 N 
ATOM     37  H   UNL     1      -4.683  13.270  26.891  0.00  0.00    +0.149 HD
ATOM     38  C   UNL     1      -6.350  12.202  26.504  0.00  0.00    +0.210 C 
ATOM     39  C   UNL     1      -7.584  11.566  27.171  0.00  0.00    +0.109 C 
ATOM     40  O   UNL     1      -6.189  12.126  25.285  0.00  0.00    -0.276 OA
ENDBRANCH  35  36
BRANCH  32  41
ATOM     41  C   UNL     1      -3.373  14.588  31.191  0.00  0.00    +0.414 C 
ATOM     42  O   UNL     1      -3.417  15.810  31.052  0.00  0.00    -0.240 OA
ATOM     43  O   UNL     1      -2.283  14.015  31.145  0.00  0.00    -0.240 OA
ENDBRANCH  32  41
BRANCH  34  44
ATOM     44  O   UNL     1      -6.971  14.933  28.620  0.00  0.00    -0.390 OA
ATOM     45  H   UNL     1      -7.091  14.575  27.738  0.00  0.00    +0.210 HD
ENDBRANCH  34  44
BRANCH  32  46
ATOM     46  O   UNL     1      -4.945  13.698  32.843  0.00  0.00    -0.343 OA
ATOM     47  C   UNL     1      -6.064  14.499  33.299  0.00  0.00    +0.198 C 
ENDBRANCH  32  46
ENDBRANCH  29  30
BRANCH  29  48
ATOM     48  O   UNL     1      -4.115  10.044  30.329  0.00  0.00    -0.387 OA
ATOM     49  H   UNL     1      -3.966  10.622  31.080  0.00  0.00    +0.210 HD
ENDBRANCH  29  48
ENDBRANCH  26  29
ENDBRANCH   1  26
TORSDOF 14
