REMARK VINA RESULT:    -5.118      3.164      9.483
REMARK INTER + INTRA:         -11.028
REMARK INTER:                  -8.397
REMARK INTRA:                  -2.631
REMARK UNBOUND:                -2.170
REMARK  Name = lig_assembled_87.pdb
REMARK  17 active torsions:
REMARK  status: ('A' for Active; 'I' for Inactive)
REMARK    1  A    between atoms: _2  and  _10
REMARK    2  A    between atoms: _3  and  _13
REMARK    3  A    between atoms: _5  and  _21
REMARK    4  A    between atoms: _7  and  _8
REMARK    5  A    between atoms: _7  and  _21
REMARK    6  A    between atoms: _17  and  _37
REMARK    7  A    between atoms: _19  and  _25
REMARK    8  A    between atoms: _20  and  _24
REMARK    9  A    between atoms: _24  and  _25
REMARK   10  A    between atoms: _27  and  _28
REMARK   11  A    between atoms: _29  and  _30
REMARK   12  A    between atoms: _31  and  _33
REMARK   13  A    between atoms: _33  and  _34
REMARK   14  A    between atoms: _33  and  _35
REMARK   15  A    between atoms: _35  and  _36
REMARK   16  A    between atoms: _35  and  _37
REMARK   17  A    between atoms: _38  and  _40
REMARK                            x       y       z     vdW  Elec       q    Type
REMARK                         _______ _______ _______ _____ _____    ______ ____
ROOT
ATOM      1  C   UNL     1      -2.911  11.758  24.111  0.00  0.00    +0.163 C 
ENDROOT
BRANCH   1   2
ATOM      2  O   UNL     1      -2.061  11.769  25.270  0.00  0.00    -0.388 OA
ATOM      3  H   UNL     1      -1.188  12.084  25.024  0.00  0.00    +0.210 HD
ENDBRANCH   1   2
BRANCH   1   4
ATOM      4  C   UNL     1      -3.473  13.154  23.863  0.00  0.00    +0.141 C 
BRANCH   4   7
ATOM      5  C   UNL     1      -4.543  13.235  21.637  0.00  0.00    +0.401 C 
ATOM      6  O   UNL     1      -3.481  13.381  21.028  0.00  0.00    -0.226 OA
ATOM      7  N   UNL     1      -4.633  13.126  22.964  0.00  0.00    -0.279 N 
ATOM      8  H   UNL     1      -5.550  13.019  23.372  0.00  0.00    +0.152 HD
BRANCH   5   9
ATOM      9  O   UNL     1      -5.766  13.179  20.898  0.00  0.00    -0.444 OA
BRANCH   9  10
ATOM     10  C   UNL     1      -6.263  11.839  20.897  0.00  0.00    +0.292 C 
BRANCH  10  12
ATOM     11  N   UNL     1      -4.956   9.955  19.978  0.00  0.00    -0.131 NA
ATOM     12  C   UNL     1      -5.692  11.087  19.765  0.00  0.00    +0.120 A 
ATOM     13  C   UNL     1      -5.779  11.320  18.412  0.00  0.00    +0.137 A 
ATOM     14  N   UNL     1      -5.181  10.229  17.840  0.00  0.00    -0.248 N 
ATOM     15  N   UNL     1      -4.592   9.482  18.798  0.00  0.00    -0.065 NA
BRANCH  14  16
ATOM     16  C   UNL     1      -5.090   9.800  16.432  0.00  0.00    +0.112 C 
ATOM     17  C   UNL     1      -3.647   9.752  15.858  0.00  0.00    +0.045 C 
ATOM     18  C   UNL     1      -3.383  10.655  14.642  0.00  0.00    +0.059 C 
ATOM     19  C   UNL     1      -3.931  10.047  13.343  0.00  0.00    +0.020 C 
ATOM     20  C   UNL     1      -5.303  10.694  13.162  0.00  0.00    +0.020 C 
ATOM     21  C   UNL     1      -5.512  11.482  14.456  0.00  0.00    +0.059 C 
ATOM     22  N   UNL     1      -4.135  11.902  14.695  0.00  0.00    -0.299 NA
ATOM     23  C   UNL     1      -3.887  12.786  15.814  0.00  0.00    +0.105 C 
ATOM     24  C   UNL     1      -6.104  10.581  15.542  0.00  0.00    +0.045 C 
ENDBRANCH  14  16
ENDBRANCH  10  12
ENDBRANCH   9  10
ENDBRANCH   5   9
ENDBRANCH   4   7
ENDBRANCH   1   4
BRANCH   1  25
ATOM     25  C   UNL     1      -4.071  10.762  24.289  0.00  0.00    +0.175 C 
BRANCH  25  26
ATOM     26  C   UNL     1      -3.926   9.930  25.571  0.00  0.00    +0.176 C 
ATOM     27  O   UNL     1      -2.935   8.895  25.324  0.00  0.00    -0.332 OA
ATOM     28  C   UNL     1      -2.587   8.062  26.479  0.00  0.00    +0.277 C 
ATOM     29  C   UNL     1      -3.859   7.432  27.095  0.00  0.00    +0.110 C 
ATOM     30  C   UNL     1      -4.954   8.489  27.347  0.00  0.00    +0.143 C 
ATOM     31  C   UNL     1      -5.236   9.300  26.081  0.00  0.00    +0.133 C 
BRANCH  31  32
ATOM     32  N   UNL     1      -6.217  10.361  26.356  0.00  0.00    -0.308 N 
ATOM     33  H   UNL     1      -5.981  11.053  27.053  0.00  0.00    +0.149 HD
ATOM     34  C   UNL     1      -7.401  10.468  25.746  0.00  0.00    +0.210 C 
ATOM     35  C   UNL     1      -7.743   9.382  24.708  0.00  0.00    +0.109 C 
ATOM     36  O   UNL     1      -8.197  11.376  25.986  0.00  0.00    -0.276 OA
ENDBRANCH  31  32
BRANCH  28  37
ATOM     37  C   UNL     1      -1.852   8.894  27.551  0.00  0.00    +0.414 C 
ATOM     38  O   UNL     1      -1.095   9.805  27.218  0.00  0.00    -0.240 OA
ATOM     39  O   UNL     1      -2.017   8.654  28.748  0.00  0.00    -0.240 OA
ENDBRANCH  28  37
BRANCH  30  40
ATOM     40  O   UNL     1      -6.157   7.846  27.771  0.00  0.00    -0.390 OA
ATOM     41  H   UNL     1      -6.912   8.274  27.359  0.00  0.00    +0.210 HD
ENDBRANCH  30  40
BRANCH  28  42
ATOM     42  O   UNL     1      -1.724   6.992  26.016  0.00  0.00    -0.343 OA
ATOM     43  C   UNL     1      -2.051   5.676  26.531  0.00  0.00    +0.198 C 
ENDBRANCH  28  42
ENDBRANCH  25  26
BRANCH  25  44
ATOM     44  O   UNL     1      -4.160   9.894  23.141  0.00  0.00    -0.387 OA
ATOM     45  H   UNL     1      -4.648   9.102  23.376  0.00  0.00    +0.210 HD
ENDBRANCH  25  44
ENDBRANCH   1  25
TORSDOF 14
