REMARK VINA RESULT:    -4.368      1.732      2.385
REMARK INTER + INTRA:         -11.476
REMARK INTER:                  -7.227
REMARK INTRA:                  -4.250
REMARK UNBOUND:                -2.894
REMARK  Name = lig_assembled_17.pdb
REMARK  22 active torsions:
REMARK  status: ('A' for Active; 'I' for Inactive)
REMARK    1  A    between atoms: _2  and  _10
REMARK    2  A    between atoms: _3  and  _11
REMARK    3  A    between atoms: _3  and  _12
REMARK    4  A    between atoms: _3  and  _14
REMARK    5  A    between atoms: _5  and  _19
REMARK    6  A    between atoms: _6  and  _14
REMARK    7  A    between atoms: _7  and  _8
REMARK    8  A    between atoms: _7  and  _19
REMARK    9  A    between atoms: _10  and  _11
REMARK   10  A    between atoms: _12  and  _13
REMARK   11  A    between atoms: _15  and  _35
REMARK   12  A    between atoms: _17  and  _23
REMARK   13  A    between atoms: _18  and  _22
REMARK   14  A    between atoms: _22  and  _23
REMARK   15  A    between atoms: _25  and  _26
REMARK   16  A    between atoms: _27  and  _28
REMARK   17  A    between atoms: _29  and  _31
REMARK   18  A    between atoms: _31  and  _32
REMARK   19  A    between atoms: _31  and  _33
REMARK   20  A    between atoms: _33  and  _34
REMARK   21  A    between atoms: _33  and  _35
REMARK   22  A    between atoms: _36  and  _38
REMARK                            x       y       z     vdW  Elec       q    Type
REMARK                         _______ _______ _______ _____ _____    ______ ____
ROOT
ATOM      1  C   UNL     1      -3.477  11.291  21.392  0.00  0.00    +0.163 C 
ENDROOT
BRANCH   1   2
ATOM      2  O   UNL     1      -2.720  12.175  22.234  0.00  0.00    -0.388 OA
ATOM      3  H   UNL     1      -3.061  13.069  22.150  0.00  0.00    +0.210 HD
ENDBRANCH   1   2
BRANCH   1   4
ATOM      4  C   UNL     1      -4.150  10.183  22.220  0.00  0.00    +0.175 C 
BRANCH   4   5
ATOM      5  C   UNL     1      -4.190  10.525  23.717  0.00  0.00    +0.176 C 
ATOM      6  O   UNL     1      -2.962  10.032  24.321  0.00  0.00    -0.332 OA
ATOM      7  C   UNL     1      -2.775  10.363  25.737  0.00  0.00    +0.277 C 
ATOM      8  C   UNL     1      -3.993   9.891  26.568  0.00  0.00    +0.110 C 
ATOM      9  C   UNL     1      -5.324  10.364  25.947  0.00  0.00    +0.143 C 
ATOM     10  C   UNL     1      -5.412   9.970  24.472  0.00  0.00    +0.133 C 
BRANCH  10  11
ATOM     11  N   UNL     1      -6.645  10.501  23.870  0.00  0.00    -0.308 N 
ATOM     12  H   UNL     1      -6.790  11.501  23.895  0.00  0.00    +0.149 HD
ATOM     13  C   UNL     1      -7.585   9.748  23.292  0.00  0.00    +0.210 C 
ATOM     14  C   UNL     1      -7.348   8.227  23.293  0.00  0.00    +0.109 C 
ATOM     15  O   UNL     1      -8.601  10.222  22.782  0.00  0.00    -0.276 OA
ENDBRANCH  10  11
BRANCH   7  16
ATOM     16  C   UNL     1      -2.582  11.882  25.923  0.00  0.00    +0.414 C 
ATOM     17  O   UNL     1      -2.099  12.561  25.017  0.00  0.00    -0.240 OA
ATOM     18  O   UNL     1      -2.908  12.429  26.977  0.00  0.00    -0.240 OA
ENDBRANCH   7  16
BRANCH   9  19
ATOM     19  O   UNL     1      -6.420   9.783  26.656  0.00  0.00    -0.390 OA
ATOM     20  H   UNL     1      -6.710  10.383  27.346  0.00  0.00    +0.210 HD
ENDBRANCH   9  19
BRANCH   7  21
ATOM     21  O   UNL     1      -1.598   9.659  26.210  0.00  0.00    -0.343 OA
ATOM     22  C   UNL     1      -1.619   9.308  27.617  0.00  0.00    +0.198 C 
ENDBRANCH   7  21
ENDBRANCH   4   5
BRANCH   4  23
ATOM     23  O   UNL     1      -3.473   8.928  22.015  0.00  0.00    -0.387 OA
ATOM     24  H   UNL     1      -2.592   8.973  22.396  0.00  0.00    +0.210 HD
ENDBRANCH   4  23
ENDBRANCH   1   4
BRANCH   1  25
ATOM     25  C   UNL     1      -4.540  12.077  20.632  0.00  0.00    +0.141 C 
BRANCH  25  28
ATOM     26  C   UNL     1      -6.531  13.273  21.475  0.00  0.00    +0.401 C 
ATOM     27  O   UNL     1      -7.317  12.684  20.730  0.00  0.00    -0.226 OA
ATOM     28  N   UNL     1      -5.216  13.056  21.492  0.00  0.00    -0.279 N 
ATOM     29  H   UNL     1      -4.652  13.597  22.133  0.00  0.00    +0.152 HD
BRANCH  26  30
ATOM     30  O   UNL     1      -7.039  14.255  22.382  0.00  0.00    -0.444 OA
BRANCH  30  31
ATOM     31  C   UNL     1      -6.146  14.387  23.492  0.00  0.00    +0.292 C 
BRANCH  31  33
ATOM     32  N   UNL     1      -7.912  13.089  24.636  0.00  0.00    -0.131 NA
ATOM     33  C   UNL     1      -6.762  13.830  24.710  0.00  0.00    +0.120 A 
ATOM     34  C   UNL     1      -6.360  13.909  26.025  0.00  0.00    +0.137 A 
ATOM     35  N   UNL     1      -7.296  13.180  26.695  0.00  0.00    -0.250 N 
ATOM     36  N   UNL     1      -8.233  12.698  25.861  0.00  0.00    -0.065 NA
BRANCH  35  37
ATOM     37  C   UNL     1      -7.348  12.859  28.106  0.00  0.00    +0.160 C 
BRANCH  37  38
ATOM     38  C   UNL     1      -5.943  12.910  28.724  0.00  0.00    +0.107 C 
BRANCH  38  39
ATOM     39  N   UNL     1      -5.465  11.656  29.358  0.00  0.00    -0.301 NA
BRANCH  39  40
ATOM     40  C   UNL     1      -4.285  11.851  30.220  0.00  0.00    +0.081 C 
ATOM     41  C   UNL     1      -3.701  13.260  30.265  0.00  0.00    +0.020 C 
ENDBRANCH  39  40
BRANCH  39  42
ATOM     42  C   UNL     1      -6.599  11.013  30.053  0.00  0.00    +0.081 C 
ATOM     43  C   UNL     1      -6.611  11.196  31.567  0.00  0.00    +0.020 C 
ENDBRANCH  39  42
ENDBRANCH  38  39
ENDBRANCH  37  38
ENDBRANCH  35  37
ENDBRANCH  31  33
ENDBRANCH  30  31
ENDBRANCH  26  30
ENDBRANCH  25  28
ENDBRANCH   1  25
TORSDOF 18
