REMARK VINA RESULT:    -4.213      2.441      4.958
REMARK INTER + INTRA:         -11.675
REMARK INTER:                  -8.967
REMARK INTRA:                  -2.707
REMARK UNBOUND:                -3.890
REMARK  Name = lig_assembled_66.pdb
REMARK  18 active torsions:
REMARK  status: ('A' for Active; 'I' for Inactive)
REMARK    1  A    between atoms: _2  and  _10
REMARK    2  A    between atoms: _5  and  _21
REMARK    3  A    between atoms: _7  and  _8
REMARK    4  A    between atoms: _7  and  _21
REMARK    5  A    between atoms: _10  and  _11
REMARK    6  A    between atoms: _15  and  _16
REMARK    7  A    between atoms: _17  and  _37
REMARK    8  A    between atoms: _19  and  _25
REMARK    9  A    between atoms: _20  and  _24
REMARK   10  A    between atoms: _24  and  _25
REMARK   11  A    between atoms: _27  and  _28
REMARK   12  A    between atoms: _29  and  _30
REMARK   13  A    between atoms: _31  and  _33
REMARK   14  A    between atoms: _33  and  _34
REMARK   15  A    between atoms: _33  and  _35
REMARK   16  A    between atoms: _35  and  _36
REMARK   17  A    between atoms: _35  and  _37
REMARK   18  A    between atoms: _38  and  _40
REMARK                            x       y       z     vdW  Elec       q    Type
REMARK                         _______ _______ _______ _____ _____    ______ ____
ROOT
ATOM      1  C   UNL     1      -4.495  12.182  25.886  0.00  0.00    +0.163 C 
ENDROOT
BRANCH   1   2
ATOM      2  O   UNL     1      -5.231  11.061  25.369  0.00  0.00    -0.388 OA
ATOM      3  H   UNL     1      -5.647  10.588  26.093  0.00  0.00    +0.210 HD
ENDBRANCH   1   2
BRANCH   1   4
ATOM      4  C   UNL     1      -4.609  12.253  27.419  0.00  0.00    +0.175 C 
BRANCH   4   5
ATOM      5  C   UNL     1      -3.784  11.158  28.111  0.00  0.00    +0.176 C 
ATOM      6  O   UNL     1      -4.345   9.870  27.733  0.00  0.00    -0.332 OA
ATOM      7  C   UNL     1      -3.616   8.695  28.219  0.00  0.00    +0.277 C 
ATOM      8  C   UNL     1      -3.447   8.761  29.757  0.00  0.00    +0.110 C 
ATOM      9  C   UNL     1      -2.883  10.124  30.210  0.00  0.00    +0.143 C 
ATOM     10  C   UNL     1      -3.714  11.276  29.645  0.00  0.00    +0.133 C 
BRANCH  10  11
ATOM     11  N   UNL     1      -3.117  12.570  30.011  0.00  0.00    -0.308 N 
ATOM     12  H   UNL     1      -2.192  12.778  29.663  0.00  0.00    +0.149 HD
ATOM     13  C   UNL     1      -3.718  13.488  30.773  0.00  0.00    +0.210 C 
ATOM     14  C   UNL     1      -5.117  13.130  31.310  0.00  0.00    +0.109 C 
ATOM     15  O   UNL     1      -3.200  14.570  31.052  0.00  0.00    -0.276 OA
ENDBRANCH  10  11
BRANCH   7  16
ATOM     16  C   UNL     1      -2.229   8.596  27.551  0.00  0.00    +0.414 C 
ATOM     17  O   UNL     1      -2.116   8.729  26.333  0.00  0.00    -0.240 OA
ATOM     18  O   UNL     1      -1.223   8.384  28.230  0.00  0.00    -0.240 OA
ENDBRANCH   7  16
BRANCH   7  19
ATOM     19  O   UNL     1      -4.399   7.516  27.896  0.00  0.00    -0.343 OA
ATOM     20  C   UNL     1      -4.037   6.320  28.630  0.00  0.00    +0.198 C 
ENDBRANCH   7  19
BRANCH   9  21
ATOM     21  O   UNL     1      -2.886  10.196  31.636  0.00  0.00    -0.390 OA
ATOM     22  H   UNL     1      -2.490   9.400  31.998  0.00  0.00    +0.210 HD
ENDBRANCH   9  21
ENDBRANCH   4   5
BRANCH   4  23
ATOM     23  O   UNL     1      -5.991  12.163  27.820  0.00  0.00    -0.387 OA
ATOM     24  H   UNL     1      -6.113  12.620  28.655  0.00  0.00    +0.210 HD
ENDBRANCH   4  23
ENDBRANCH   1   4
BRANCH   1  25
ATOM     25  C   UNL     1      -3.027  12.072  25.489  0.00  0.00    +0.141 C 
BRANCH  25  28
ATOM     26  C   UNL     1      -2.926  11.435  23.104  0.00  0.00    +0.401 C 
ATOM     27  O   UNL     1      -3.190  10.248  23.312  0.00  0.00    -0.226 OA
ATOM     28  N   UNL     1      -2.824  12.355  24.063  0.00  0.00    -0.279 N 
ATOM     29  H   UNL     1      -2.593  13.301  23.793  0.00  0.00    +0.152 HD
BRANCH  26  30
ATOM     30  O   UNL     1      -2.707  11.872  21.760  0.00  0.00    -0.444 OA
BRANCH  30  31
ATOM     31  C   UNL     1      -3.958  12.226  21.163  0.00  0.00    +0.292 C 
BRANCH  31  33
ATOM     32  N   UNL     1      -3.738  14.586  21.884  0.00  0.00    -0.131 NA
ATOM     33  C   UNL     1      -4.497  13.450  21.787  0.00  0.00    +0.120 A 
ATOM     34  C   UNL     1      -5.748  13.700  22.304  0.00  0.00    +0.137 A 
ATOM     35  N   UNL     1      -5.706  15.021  22.647  0.00  0.00    -0.247 N 
ATOM     36  N   UNL     1      -4.489  15.545  22.411  0.00  0.00    -0.065 NA
BRANCH  35  37
ATOM     37  C   UNL     1      -6.829  15.888  22.952  0.00  0.00    +0.180 C 
BRANCH  37  38
ATOM     38  C   UNL     1      -6.782  16.457  24.347  0.00  0.00    -0.025 A 
ATOM     39  C   UNL     1      -6.624  17.837  24.545  0.00  0.00    +0.005 A 
ATOM     40  C   UNL     1      -6.664  18.382  25.831  0.00  0.00    +0.002 A 
ATOM     41  C   UNL     1      -6.842  17.552  26.937  0.00  0.00    +0.019 A 
ATOM     42  C   UNL     1      -6.966  16.171  26.760  0.00  0.00    +0.052 A 
ATOM     43  C   UNL     1      -6.937  15.626  25.469  0.00  0.00    +0.024 A 
BRANCH  42  44
ATOM     44  C   UNL     1      -7.133  15.313  27.897  0.00  0.00    +0.099 C 
ATOM     45  N   UNL     1      -7.268  14.625  28.822  0.00  0.00    -0.191 NA
ENDBRANCH  42  44
ENDBRANCH  37  38
ENDBRANCH  35  37
ENDBRANCH  31  33
ENDBRANCH  30  31
ENDBRANCH  26  30
ENDBRANCH  25  28
ENDBRANCH   1  25
TORSDOF 16
