REMARK VINA RESULT:    -4.717      5.336     13.048
REMARK INTER + INTRA:         -11.427
REMARK INTER:                  -9.154
REMARK INTRA:                  -2.273
REMARK UNBOUND:                -2.711
REMARK  Name = lig_assembled_36.pdb
REMARK  18 active torsions:
REMARK  status: ('A' for Active; 'I' for Inactive)
REMARK    1  A    between atoms: _2  and  _10
REMARK    2  A    between atoms: _5  and  _21
REMARK    3  A    between atoms: _7  and  _8
REMARK    4  A    between atoms: _7  and  _21
REMARK    5  A    between atoms: _10  and  _11
REMARK    6  A    between atoms: _14  and  _15
REMARK    7  A    between atoms: _17  and  _37
REMARK    8  A    between atoms: _19  and  _25
REMARK    9  A    between atoms: _20  and  _24
REMARK   10  A    between atoms: _24  and  _25
REMARK   11  A    between atoms: _27  and  _28
REMARK   12  A    between atoms: _29  and  _30
REMARK   13  A    between atoms: _31  and  _33
REMARK   14  A    between atoms: _33  and  _34
REMARK   15  A    between atoms: _33  and  _35
REMARK   16  A    between atoms: _35  and  _36
REMARK   17  A    between atoms: _35  and  _37
REMARK   18  A    between atoms: _38  and  _40
REMARK                            x       y       z     vdW  Elec       q    Type
REMARK                         _______ _______ _______ _____ _____    ______ ____
ROOT
ATOM      1  C   UNL     1      -3.130   9.334  14.182  0.00  0.00    +0.163 C 
ENDROOT
BRANCH   1   2
ATOM      2  O   UNL     1      -1.878   8.924  13.606  0.00  0.00    -0.388 OA
ATOM      3  H   UNL     1      -2.028   8.196  12.998  0.00  0.00    +0.210 HD
ENDBRANCH   1   2
BRANCH   1   4
ATOM      4  C   UNL     1      -4.069   9.908  13.106  0.00  0.00    +0.175 C 
BRANCH   4   5
ATOM      5  C   UNL     1      -3.683  11.340  12.707  0.00  0.00    +0.176 C 
ATOM      6  O   UNL     1      -2.429  11.278  11.975  0.00  0.00    -0.332 OA
ATOM      7  C   UNL     1      -1.956  12.549  11.419  0.00  0.00    +0.277 C 
ATOM      8  C   UNL     1      -1.860  13.623  12.530  0.00  0.00    +0.110 C 
ATOM      9  C   UNL     1      -3.161  13.704  13.357  0.00  0.00    +0.143 C 
ATOM     10  C   UNL     1      -3.562  12.326  13.884  0.00  0.00    +0.133 C 
BRANCH  10  11
ATOM     11  N   UNL     1      -4.847  12.401  14.596  0.00  0.00    -0.308 N 
ATOM     12  H   UNL     1      -5.687  12.505  14.044  0.00  0.00    +0.149 HD
ATOM     13  C   UNL     1      -4.976  12.342  15.924  0.00  0.00    +0.210 C 
ATOM     14  C   UNL     1      -3.675  12.211  16.739  0.00  0.00    +0.109 C 
ATOM     15  O   UNL     1      -6.067  12.393  16.493  0.00  0.00    -0.276 OA
ENDBRANCH  10  11
BRANCH   7  16
ATOM     16  C   UNL     1      -2.900  13.043  10.303  0.00  0.00    +0.414 C 
ATOM     17  O   UNL     1      -3.329  12.257   9.459  0.00  0.00    -0.240 OA
ATOM     18  O   UNL     1      -3.234  14.228  10.247  0.00  0.00    -0.240 OA
ENDBRANCH   7  16
BRANCH   7  19
ATOM     19  O   UNL     1      -0.628  12.335  10.874  0.00  0.00    -0.343 OA
ATOM     20  C   UNL     1       0.162  13.537  10.696  0.00  0.00    +0.198 C 
ENDBRANCH   7  19
BRANCH   9  21
ATOM     21  O   UNL     1      -2.976  14.594  14.459  0.00  0.00    -0.390 OA
ATOM     22  H   UNL     1      -2.409  14.180  15.113  0.00  0.00    +0.210 HD
ENDBRANCH   9  21
ENDBRANCH   4   5
BRANCH   4  23
ATOM     23  O   UNL     1      -5.434   9.871  13.568  0.00  0.00    -0.387 OA
ATOM     24  H   UNL     1      -5.469   9.451  14.431  0.00  0.00    +0.210 HD
ENDBRANCH   4  23
ENDBRANCH   1   4
BRANCH   1  25
ATOM     25  C   UNL     1      -3.802   8.148  14.865  0.00  0.00    +0.141 C 
BRANCH  25  28
ATOM     26  C   UNL     1      -5.004   8.771  16.933  0.00  0.00    +0.401 C 
ATOM     27  O   UNL     1      -6.048   9.068  16.348  0.00  0.00    -0.226 OA
ATOM     28  N   UNL     1      -3.902   8.338  16.318  0.00  0.00    -0.279 N 
ATOM     29  H   UNL     1      -3.091   8.129  16.883  0.00  0.00    +0.152 HD
BRANCH  26  30
ATOM     30  O   UNL     1      -4.945   8.895  18.356  0.00  0.00    -0.444 OA
BRANCH  30  31
ATOM     31  C   UNL     1      -5.927   9.838  18.795  0.00  0.00    +0.292 C 
BRANCH  31  33
ATOM     32  N   UNL     1      -5.695  10.042  21.253  0.00  0.00    -0.131 NA
ATOM     33  C   UNL     1      -5.455  10.544  20.001  0.00  0.00    +0.120 A 
ATOM     34  C   UNL     1      -4.732  11.710  20.113  0.00  0.00    +0.137 A 
ATOM     35  N   UNL     1      -4.484  11.810  21.451  0.00  0.00    -0.247 N 
ATOM     36  N   UNL     1      -5.111  10.838  22.137  0.00  0.00    -0.065 NA
BRANCH  35  37
ATOM     37  C   UNL     1      -3.656  12.784  22.135  0.00  0.00    +0.180 C 
BRANCH  37  38
ATOM     38  C   UNL     1      -3.694  12.581  23.632  0.00  0.00    -0.026 A 
ATOM     39  C   UNL     1      -2.767  11.743  24.269  0.00  0.00    +0.007 A 
ATOM     40  C   UNL     1      -2.807  11.565  25.656  0.00  0.00    +0.019 A 
ATOM     41  C   UNL     1      -3.777  12.218  26.423  0.00  0.00    +0.052 A 
ATOM     42  C   UNL     1      -4.720  13.035  25.793  0.00  0.00    +0.019 A 
ATOM     43  C   UNL     1      -4.681  13.212  24.407  0.00  0.00    +0.007 A 
BRANCH  41  44
ATOM     44  C   UNL     1      -3.803  12.050  27.848  0.00  0.00    +0.099 C 
ATOM     45  N   UNL     1      -3.832  11.924  29.001  0.00  0.00    -0.191 NA
ENDBRANCH  41  44
ENDBRANCH  37  38
ENDBRANCH  35  37
ENDBRANCH  31  33
ENDBRANCH  30  31
ENDBRANCH  26  30
ENDBRANCH  25  28
ENDBRANCH   1  25
TORSDOF 16
