REMARK VINA RESULT:    -3.922      5.327      9.551
REMARK INTER + INTRA:         -10.600
REMARK INTER:                  -8.076
REMARK INTRA:                  -2.524
REMARK UNBOUND:                -2.894
REMARK  Name = lig_assembled_17.pdb
REMARK  22 active torsions:
REMARK  status: ('A' for Active; 'I' for Inactive)
REMARK    1  A    between atoms: _2  and  _10
REMARK    2  A    between atoms: _3  and  _11
REMARK    3  A    between atoms: _3  and  _12
REMARK    4  A    between atoms: _3  and  _14
REMARK    5  A    between atoms: _5  and  _19
REMARK    6  A    between atoms: _6  and  _14
REMARK    7  A    between atoms: _7  and  _8
REMARK    8  A    between atoms: _7  and  _19
REMARK    9  A    between atoms: _10  and  _11
REMARK   10  A    between atoms: _12  and  _13
REMARK   11  A    between atoms: _15  and  _35
REMARK   12  A    between atoms: _17  and  _23
REMARK   13  A    between atoms: _18  and  _22
REMARK   14  A    between atoms: _22  and  _23
REMARK   15  A    between atoms: _25  and  _26
REMARK   16  A    between atoms: _27  and  _28
REMARK   17  A    between atoms: _29  and  _31
REMARK   18  A    between atoms: _31  and  _32
REMARK   19  A    between atoms: _31  and  _33
REMARK   20  A    between atoms: _33  and  _34
REMARK   21  A    between atoms: _33  and  _35
REMARK   22  A    between atoms: _36  and  _38
REMARK                            x       y       z     vdW  Elec       q    Type
REMARK                         _______ _______ _______ _____ _____    ______ ____
ROOT
ATOM      1  C   UNL     1      -5.358   7.345  24.170  0.00  0.00    +0.163 C 
ENDROOT
BRANCH   1   2
ATOM      2  O   UNL     1      -4.197   6.900  24.891  0.00  0.00    -0.388 OA
ATOM      3  H   UNL     1      -3.948   6.024  24.587  0.00  0.00    +0.210 HD
ENDBRANCH   1   2
BRANCH   1   4
ATOM      4  C   UNL     1      -5.077   8.671  23.440  0.00  0.00    +0.175 C 
BRANCH   4   5
ATOM      5  C   UNL     1      -4.043   9.531  24.182  0.00  0.00    +0.176 C 
ATOM      6  O   UNL     1      -4.396   9.538  25.592  0.00  0.00    -0.332 OA
ATOM      7  C   UNL     1      -3.454  10.228  26.478  0.00  0.00    +0.277 C 
ATOM      8  C   UNL     1      -3.216  11.679  25.991  0.00  0.00    +0.110 C 
ATOM      9  C   UNL     1      -2.868  11.724  24.488  0.00  0.00    +0.143 C 
ATOM     10  C   UNL     1      -3.912  10.974  23.660  0.00  0.00    +0.133 C 
BRANCH  10  11
ATOM     11  N   UNL     1      -3.524  10.950  22.241  0.00  0.00    -0.308 N 
ATOM     12  H   UNL     1      -2.698  10.426  21.987  0.00  0.00    +0.149 HD
ATOM     13  C   UNL     1      -4.191  11.575  21.268  0.00  0.00    +0.210 C 
ATOM     14  C   UNL     1      -5.430  12.387  21.692  0.00  0.00    +0.109 C 
ATOM     15  O   UNL     1      -3.851  11.526  20.085  0.00  0.00    -0.276 OA
ENDBRANCH  10  11
BRANCH   7  16
ATOM     16  C   UNL     1      -2.108   9.477  26.538  0.00  0.00    +0.414 C 
ATOM     17  O   UNL     1      -1.052  10.102  26.622  0.00  0.00    -0.240 OA
ATOM     18  O   UNL     1      -2.078   8.246  26.501  0.00  0.00    -0.240 OA
ENDBRANCH   7  16
BRANCH   9  19
ATOM     19  O   UNL     1      -2.807  13.082  24.049  0.00  0.00    -0.390 OA
ATOM     20  H   UNL     1      -2.744  13.663  24.811  0.00  0.00    +0.210 HD
ENDBRANCH   9  19
BRANCH   7  21
ATOM     21  O   UNL     1      -4.042  10.282  27.804  0.00  0.00    -0.343 OA
ATOM     22  C   UNL     1      -5.281   9.544  27.955  0.00  0.00    +0.198 C 
ENDBRANCH   7  21
ENDBRANCH   4   5
BRANCH   4  23
ATOM     23  O   UNL     1      -6.302   9.409  23.263  0.00  0.00    -0.387 OA
ATOM     24  H   UNL     1      -6.995   9.012  23.795  0.00  0.00    +0.210 HD
ENDBRANCH   4  23
ENDBRANCH   1   4
BRANCH   1  25
ATOM     25  C   UNL     1      -5.781   6.286  23.157  0.00  0.00    +0.141 C 
BRANCH  25  28
ATOM     26  C   UNL     1      -5.618   6.441  20.697  0.00  0.00    +0.401 C 
ATOM     27  O   UNL     1      -4.819   5.507  20.597  0.00  0.00    -0.226 OA
ATOM     28  N   UNL     1      -6.115   6.876  21.855  0.00  0.00    -0.279 N 
ATOM     29  H   UNL     1      -6.757   7.656  21.836  0.00  0.00    +0.152 HD
BRANCH  26  30
ATOM     30  O   UNL     1      -6.049   7.116  19.512  0.00  0.00    -0.444 OA
BRANCH  30  31
ATOM     31  C   UNL     1      -5.938   6.234  18.392  0.00  0.00    +0.292 C 
BRANCH  31  33
ATOM     32  N   UNL     1      -3.683   6.550  17.430  0.00  0.00    -0.131 NA
ATOM     33  C   UNL     1      -5.028   6.804  17.382  0.00  0.00    +0.120 A 
ATOM     34  C   UNL     1      -5.298   7.607  16.295  0.00  0.00    +0.137 A 
ATOM     35  N   UNL     1      -4.079   7.786  15.715  0.00  0.00    -0.250 N 
ATOM     36  N   UNL     1      -3.109   7.160  16.404  0.00  0.00    -0.065 NA
BRANCH  35  37
ATOM     37  C   UNL     1      -3.758   8.494  14.493  0.00  0.00    +0.160 C 
BRANCH  37  38
ATOM     38  C   UNL     1      -2.720   9.593  14.762  0.00  0.00    +0.107 C 
BRANCH  38  39
ATOM     39  N   UNL     1      -3.068  10.951  14.273  0.00  0.00    -0.301 NA
BRANCH  39  40
ATOM     40  C   UNL     1      -3.404  10.986  12.838  0.00  0.00    +0.081 C 
ATOM     41  C   UNL     1      -2.390  11.661  11.919  0.00  0.00    +0.020 C 
ENDBRANCH  39  40
BRANCH  39  42
ATOM     42  C   UNL     1      -4.128  11.510  15.137  0.00  0.00    +0.081 C 
ATOM     43  C   UNL     1      -4.001  13.003  15.424  0.00  0.00    +0.020 C 
ENDBRANCH  39  42
ENDBRANCH  38  39
ENDBRANCH  37  38
ENDBRANCH  35  37
ENDBRANCH  31  33
ENDBRANCH  30  31
ENDBRANCH  26  30
ENDBRANCH  25  28
ENDBRANCH   1  25
TORSDOF 18
