REMARK VINA RESULT:    -3.876      2.344      4.343
REMARK INTER + INTRA:         -10.890
REMARK INTER:                  -7.306
REMARK INTRA:                  -3.583
REMARK UNBOUND:                -3.049
REMARK  Name = lig_assembled_45.pdb
REMARK  24 active torsions:
REMARK  status: ('A' for Active; 'I' for Inactive)
REMARK    1  A    between atoms: _2  and  _10
REMARK    2  A    between atoms: _3  and  _12
REMARK    3  A    between atoms: _3  and  _13
REMARK    4  A    between atoms: _3  and  _14
REMARK    5  A    between atoms: _3  and  _16
REMARK    6  A    between atoms: _5  and  _21
REMARK    7  A    between atoms: _6  and  _16
REMARK    8  A    between atoms: _7  and  _8
REMARK    9  A    between atoms: _7  and  _21
REMARK   10  A    between atoms: _10  and  _11
REMARK   11  A    between atoms: _11  and  _12
REMARK   12  A    between atoms: _14  and  _15
REMARK   13  A    between atoms: _17  and  _37
REMARK   14  A    between atoms: _19  and  _25
REMARK   15  A    between atoms: _20  and  _24
REMARK   16  A    between atoms: _24  and  _25
REMARK   17  A    between atoms: _27  and  _28
REMARK   18  A    between atoms: _29  and  _30
REMARK   19  A    between atoms: _31  and  _33
REMARK   20  A    between atoms: _33  and  _34
REMARK   21  A    between atoms: _33  and  _35
REMARK   22  A    between atoms: _35  and  _36
REMARK   23  A    between atoms: _35  and  _37
REMARK   24  A    between atoms: _38  and  _40
REMARK                            x       y       z     vdW  Elec       q    Type
REMARK                         _______ _______ _______ _____ _____    ______ ____
ROOT
ATOM      1  C   UNL     1      -3.015  11.683  22.838  0.00  0.00    +0.163 C 
ENDROOT
BRANCH   1   2
ATOM      2  O   UNL     1      -3.565  12.621  23.778  0.00  0.00    -0.388 OA
ATOM      3  H   UNL     1      -3.599  12.219  24.649  0.00  0.00    +0.210 HD
ENDBRANCH   1   2
BRANCH   1   4
ATOM      4  C   UNL     1      -3.839  10.384  22.810  0.00  0.00    +0.175 C 
BRANCH   4   5
ATOM      5  C   UNL     1      -4.245   9.927  24.219  0.00  0.00    +0.176 C 
ATOM      6  O   UNL     1      -3.076  10.033  25.078  0.00  0.00    -0.332 OA
ATOM      7  C   UNL     1      -3.301   9.736  26.495  0.00  0.00    +0.277 C 
ATOM      8  C   UNL     1      -3.946   8.337  26.659  0.00  0.00    +0.110 C 
ATOM      9  C   UNL     1      -5.175   8.166  25.742  0.00  0.00    +0.143 C 
ATOM     10  C   UNL     1      -4.829   8.504  24.291  0.00  0.00    +0.133 C 
BRANCH  10  11
ATOM     11  N   UNL     1      -6.028   8.421  23.442  0.00  0.00    -0.308 N 
ATOM     12  H   UNL     1      -6.773   9.082  23.613  0.00  0.00    +0.149 HD
ATOM     13  C   UNL     1      -6.196   7.530  22.462  0.00  0.00    +0.210 C 
ATOM     14  C   UNL     1      -5.053   6.520  22.244  0.00  0.00    +0.109 C 
ATOM     15  O   UNL     1      -7.205   7.493  21.757  0.00  0.00    -0.276 OA
ENDBRANCH  10  11
BRANCH   7  16
ATOM     16  C   UNL     1      -4.212  10.802  27.140  0.00  0.00    +0.414 C 
ATOM     17  O   UNL     1      -4.971  10.496  28.059  0.00  0.00    -0.240 OA
ATOM     18  O   UNL     1      -4.187  11.967  26.741  0.00  0.00    -0.240 OA
ENDBRANCH   7  16
BRANCH   9  19
ATOM     19  O   UNL     1      -5.645   6.819  25.812  0.00  0.00    -0.390 OA
ATOM     20  H   UNL     1      -5.103   6.261  25.250  0.00  0.00    +0.210 HD
ENDBRANCH   9  19
BRANCH   7  21
ATOM     21  O   UNL     1      -2.013   9.726  27.162  0.00  0.00    -0.343 OA
ATOM     22  C   UNL     1      -1.845   8.682  28.155  0.00  0.00    +0.198 C 
ENDBRANCH   7  21
ENDBRANCH   4   5
BRANCH   4  23
ATOM     23  O   UNL     1      -3.101   9.342  22.143  0.00  0.00    -0.387 OA
ATOM     24  H   UNL     1      -2.699   8.764  22.797  0.00  0.00    +0.210 HD
ENDBRANCH   4  23
ENDBRANCH   1   4
BRANCH   1  25
ATOM     25  C   UNL     1      -2.985  12.298  21.443  0.00  0.00    +0.141 C 
BRANCH  25  28
ATOM     26  C   UNL     1      -5.325  12.604  20.711  0.00  0.00    +0.401 C 
ATOM     27  O   UNL     1      -5.519  13.589  21.427  0.00  0.00    -0.226 OA
ATOM     28  N   UNL     1      -4.173  11.935  20.660  0.00  0.00    -0.279 N 
ATOM     29  H   UNL     1      -4.113  11.133  20.048  0.00  0.00    +0.152 HD
BRANCH  26  30
ATOM     30  O   UNL     1      -6.387  12.131  19.879  0.00  0.00    -0.444 OA
BRANCH  30  31
ATOM     31  C   UNL     1      -6.737  10.798  20.262  0.00  0.00    +0.292 C 
BRANCH  31  33
ATOM     32  N   UNL     1      -5.014   9.319  19.264  0.00  0.00    -0.131 NA
ATOM     33  C   UNL     1      -6.282   9.836  19.241  0.00  0.00    +0.120 A 
ATOM     34  C   UNL     1      -6.960   9.315  18.163  0.00  0.00    +0.137 A 
ATOM     35  N   UNL     1      -6.046   8.491  17.582  0.00  0.00    -0.251 N 
ATOM     36  N   UNL     1      -4.880   8.495  18.233  0.00  0.00    -0.065 NA
BRANCH  35  37
ATOM     37  C   UNL     1      -6.219   7.692  16.386  0.00  0.00    +0.150 C 
BRANCH  37  38
ATOM     38  C   UNL     1      -5.408   8.209  15.205  0.00  0.00    +0.074 C 
BRANCH  38  39
ATOM     39  C   UNL     1      -5.762   9.607  14.682  0.00  0.00    +0.134 C 
BRANCH  39  40
ATOM     40  N   UNL     1      -4.625  10.680  14.632  0.00  0.00    +0.241 N 
ATOM     41  C   UNL     1      -3.392  10.130  15.369  0.00  0.00    +0.192 C 
BRANCH  40  42
ATOM     42  C   UNL     1      -5.163  11.919  15.423  0.00  0.00    +0.129 C 
ATOM     43  C   UNL     1      -4.157  12.513  16.403  0.00  0.00    +0.060 C 
ENDBRANCH  40  42
BRANCH  40  44
ATOM     44  C   UNL     1      -4.206  11.113  13.214  0.00  0.00    +0.129 C 
ATOM     45  C   UNL     1      -2.821  10.644  12.803  0.00  0.00    +0.060 C 
ENDBRANCH  40  44
ENDBRANCH  39  40
ENDBRANCH  38  39
ENDBRANCH  37  38
ENDBRANCH  35  37
ENDBRANCH  31  33
ENDBRANCH  30  31
ENDBRANCH  26  30
ENDBRANCH  25  28
ENDBRANCH   1  25
TORSDOF 19
