REMARK VINA RESULT:    -5.740      7.439     12.455
REMARK INTER + INTRA:         -11.771
REMARK INTER:                  -9.521
REMARK INTRA:                  -2.250
REMARK UNBOUND:                -1.837
REMARK  Name = lig_assembled_2.pdb
REMARK  16 active torsions:
REMARK  status: ('A' for Active; 'I' for Inactive)
REMARK    1  A    between atoms: _2  and  _9
REMARK    2  A    between atoms: _4  and  _18
REMARK    3  A    between atoms: _6  and  _7
REMARK    4  A    between atoms: _6  and  _18
REMARK    5  A    between atoms: _14  and  _34
REMARK    6  A    between atoms: _16  and  _22
REMARK    7  A    between atoms: _17  and  _21
REMARK    8  A    between atoms: _21  and  _22
REMARK    9  A    between atoms: _24  and  _25
REMARK   10  A    between atoms: _26  and  _27
REMARK   11  A    between atoms: _28  and  _30
REMARK   12  A    between atoms: _30  and  _31
REMARK   13  A    between atoms: _30  and  _32
REMARK   14  A    between atoms: _32  and  _33
REMARK   15  A    between atoms: _32  and  _34
REMARK   16  A    between atoms: _35  and  _37
REMARK                            x       y       z     vdW  Elec       q    Type
REMARK                         _______ _______ _______ _____ _____    ______ ____
ROOT
ATOM      1  C   UNL     1      -3.186  11.822  25.113  0.00  0.00    +0.163 C 
ENDROOT
BRANCH   1   2
ATOM      2  O   UNL     1      -2.073  10.914  25.052  0.00  0.00    -0.388 OA
ATOM      3  H   UNL     1      -1.747  10.747  25.939  0.00  0.00    +0.210 HD
ENDBRANCH   1   2
BRANCH   1   4
ATOM      4  C   UNL     1      -2.838  13.123  24.396  0.00  0.00    +0.141 C 
BRANCH   4   7
ATOM      5  C   UNL     1      -4.830  13.901  23.159  0.00  0.00    +0.401 C 
ATOM      6  O   UNL     1      -5.394  14.347  24.161  0.00  0.00    -0.226 OA
ATOM      7  N   UNL     1      -3.636  13.307  23.178  0.00  0.00    -0.279 N 
ATOM      8  H   UNL     1      -3.259  12.965  22.305  0.00  0.00    +0.152 HD
BRANCH   5   9
ATOM      9  O   UNL     1      -5.478  14.013  21.889  0.00  0.00    -0.444 OA
BRANCH   9  10
ATOM     10  C   UNL     1      -6.232  12.825  21.632  0.00  0.00    +0.292 C 
BRANCH  10  12
ATOM     11  N   UNL     1      -7.198  12.580  19.367  0.00  0.00    -0.131 NA
ATOM     12  C   UNL     1      -6.131  12.453  20.208  0.00  0.00    +0.121 A 
ATOM     13  C   UNL     1      -5.057  11.963  19.500  0.00  0.00    +0.143 A 
ATOM     14  N   UNL     1      -5.513  11.832  18.209  0.00  0.00    -0.220 N 
ATOM     15  N   UNL     1      -6.818  12.195  18.157  0.00  0.00    -0.060 NA
BRANCH  14  16
ATOM     16  C   UNL     1      -4.799  11.424  17.052  0.00  0.00    +0.067 A 
ATOM     17  C   UNL     1      -4.061  12.347  16.297  0.00  0.00    +0.029 A 
ATOM     18  C   UNL     1      -3.394  11.930  15.139  0.00  0.00    +0.022 A 
ATOM     19  C   UNL     1      -3.461  10.599  14.735  0.00  0.00    +0.041 A 
ATOM     20 CL   UNL     1      -2.658  10.102  13.298  0.00  0.00    -0.084 Cl
ATOM     21  C   UNL     1      -4.179   9.671  15.486  0.00  0.00    +0.022 A 
ATOM     22  C   UNL     1      -4.847  10.080  16.645  0.00  0.00    +0.029 A 
ENDBRANCH  14  16
ENDBRANCH  10  12
ENDBRANCH   9  10
ENDBRANCH   5   9
ENDBRANCH   4   7
ENDBRANCH   1   4
BRANCH   1  23
ATOM     23  C   UNL     1      -3.569  12.126  26.571  0.00  0.00    +0.175 C 
BRANCH  23  24
ATOM     24  C   UNL     1      -3.372  10.908  27.486  0.00  0.00    +0.176 C 
ATOM     25  O   UNL     1      -4.018   9.767  26.856  0.00  0.00    -0.332 OA
ATOM     26  C   UNL     1      -3.842   8.482  27.540  0.00  0.00    +0.277 C 
ATOM     27  C   UNL     1      -4.294   8.589  29.017  0.00  0.00    +0.110 C 
ATOM     28  C   UNL     1      -3.658   9.807  29.720  0.00  0.00    +0.143 C 
ATOM     29  C   UNL     1      -3.898  11.089  28.922  0.00  0.00    +0.133 C 
BRANCH  29  30
ATOM     30  N   UNL     1      -3.214  12.226  29.556  0.00  0.00    -0.308 N 
ATOM     31  H   UNL     1      -2.205  12.208  29.594  0.00  0.00    +0.149 HD
ATOM     32  C   UNL     1      -3.840  13.281  30.085  0.00  0.00    +0.210 C 
ATOM     33  C   UNL     1      -5.380  13.267  30.034  0.00  0.00    +0.109 C 
ATOM     34  O   UNL     1      -3.240  14.227  30.597  0.00  0.00    -0.276 OA
ENDBRANCH  29  30
BRANCH  26  35
ATOM     35  C   UNL     1      -2.369   8.029  27.483  0.00  0.00    +0.414 C 
ATOM     36  O   UNL     1      -1.882   7.382  28.410  0.00  0.00    -0.240 OA
ATOM     37  O   UNL     1      -1.667   8.309  26.510  0.00  0.00    -0.240 OA
ENDBRANCH  26  35
BRANCH  28  38
ATOM     38  O   UNL     1      -4.216   9.954  31.026  0.00  0.00    -0.390 OA
ATOM     39  H   UNL     1      -4.373   9.087  31.408  0.00  0.00    +0.210 HD
ENDBRANCH  28  38
BRANCH  26  40
ATOM     40  O   UNL     1      -4.681   7.502  26.875  0.00  0.00    -0.343 OA
ATOM     41  C   UNL     1      -5.135   7.882  25.552  0.00  0.00    +0.198 C 
ENDBRANCH  26  40
ENDBRANCH  23  24
BRANCH  23  42
ATOM     42  O   UNL     1      -4.933  12.585  26.641  0.00  0.00    -0.387 OA
ATOM     43  H   UNL     1      -5.145  12.825  27.547  0.00  0.00    +0.210 HD
ENDBRANCH  23  42
ENDBRANCH   1  23
TORSDOF 14
