REMARK VINA RESULT:    -4.116      2.381      5.999
REMARK INTER + INTRA:         -11.496
REMARK INTER:                  -7.827
REMARK INTRA:                  -3.668
REMARK UNBOUND:                -3.890
REMARK  Name = lig_assembled_66.pdb
REMARK  18 active torsions:
REMARK  status: ('A' for Active; 'I' for Inactive)
REMARK    1  A    between atoms: _2  and  _10
REMARK    2  A    between atoms: _5  and  _21
REMARK    3  A    between atoms: _7  and  _8
REMARK    4  A    between atoms: _7  and  _21
REMARK    5  A    between atoms: _10  and  _11
REMARK    6  A    between atoms: _15  and  _16
REMARK    7  A    between atoms: _17  and  _37
REMARK    8  A    between atoms: _19  and  _25
REMARK    9  A    between atoms: _20  and  _24
REMARK   10  A    between atoms: _24  and  _25
REMARK   11  A    between atoms: _27  and  _28
REMARK   12  A    between atoms: _29  and  _30
REMARK   13  A    between atoms: _31  and  _33
REMARK   14  A    between atoms: _33  and  _34
REMARK   15  A    between atoms: _33  and  _35
REMARK   16  A    between atoms: _35  and  _36
REMARK   17  A    between atoms: _35  and  _37
REMARK   18  A    between atoms: _38  and  _40
REMARK                            x       y       z     vdW  Elec       q    Type
REMARK                         _______ _______ _______ _____ _____    ______ ____
ROOT
ATOM      1  C   UNL     1      -2.795   9.841  26.370  0.00  0.00    +0.163 C 
ENDROOT
BRANCH   1   2
ATOM      2  O   UNL     1      -1.867  10.389  25.419  0.00  0.00    -0.388 OA
ATOM      3  H   UNL     1      -1.703  11.312  25.628  0.00  0.00    +0.210 HD
ENDBRANCH   1   2
BRANCH   1   4
ATOM      4  C   UNL     1      -4.097   9.403  25.679  0.00  0.00    +0.175 C 
BRANCH   4   5
ATOM      5  C   UNL     1      -4.856  10.592  25.071  0.00  0.00    +0.176 C 
ATOM      6  O   UNL     1      -4.148  11.007  23.870  0.00  0.00    -0.332 OA
ATOM      7  C   UNL     1      -4.790  12.071  23.092  0.00  0.00    +0.277 C 
ATOM      8  C   UNL     1      -5.069  13.303  23.987  0.00  0.00    +0.110 C 
ATOM      9  C   UNL     1      -5.792  12.907  25.291  0.00  0.00    +0.143 C 
ATOM     10  C   UNL     1      -5.041  11.792  26.019  0.00  0.00    +0.133 C 
BRANCH  10  11
ATOM     11  N   UNL     1      -5.785  11.364  27.214  0.00  0.00    -0.308 N 
ATOM     12  H   UNL     1      -6.692  10.940  27.078  0.00  0.00    +0.149 HD
ATOM     13  C   UNL     1      -5.340  11.499  28.466  0.00  0.00    +0.210 C 
ATOM     14  C   UNL     1      -3.965  12.172  28.640  0.00  0.00    +0.109 C 
ATOM     15  O   UNL     1      -5.978  11.117  29.447  0.00  0.00    -0.276 OA
ENDBRANCH  10  11
BRANCH   7  16
ATOM     16  C   UNL     1      -6.112  11.574  22.472  0.00  0.00    +0.414 C 
ATOM     17  O   UNL     1      -6.969  12.380  22.109  0.00  0.00    -0.240 OA
ATOM     18  O   UNL     1      -6.323  10.368  22.335  0.00  0.00    -0.240 OA
ENDBRANCH   7  16
BRANCH   7  19
ATOM     19  O   UNL     1      -3.876  12.469  22.037  0.00  0.00    -0.343 OA
ATOM     20  C   UNL     1      -3.119  11.385  21.442  0.00  0.00    +0.198 C 
ENDBRANCH   7  19
BRANCH   9  21
ATOM     21  O   UNL     1      -5.893  14.044  26.150  0.00  0.00    -0.390 OA
ATOM     22  H   UNL     1      -5.410  14.780  25.766  0.00  0.00    +0.210 HD
ENDBRANCH   9  21
ENDBRANCH   4   5
BRANCH   4  23
ATOM     23  O   UNL     1      -4.942   8.700  26.611  0.00  0.00    -0.387 OA
ATOM     24  H   UNL     1      -5.730   8.390  26.158  0.00  0.00    +0.210 HD
ENDBRANCH   4  23
ENDBRANCH   1   4
BRANCH   1  25
ATOM     25  C   UNL     1      -2.168   8.645  27.080  0.00  0.00    +0.141 C 
BRANCH  25  28
ATOM     26  C   UNL     1      -2.389   7.647  29.330  0.00  0.00    +0.401 C 
ATOM     27  O   UNL     1      -2.297   6.485  28.927  0.00  0.00    -0.226 OA
ATOM     28  N   UNL     1      -2.345   8.717  28.535  0.00  0.00    -0.279 N 
ATOM     29  H   UNL     1      -2.439   9.630  28.959  0.00  0.00    +0.152 HD
BRANCH  26  30
ATOM     30  O   UNL     1      -2.558   7.885  30.730  0.00  0.00    -0.444 OA
BRANCH  30  31
ATOM     31  C   UNL     1      -3.760   8.628  30.947  0.00  0.00    +0.292 C 
BRANCH  31  33
ATOM     32  N   UNL     1      -2.324  10.581  31.459  0.00  0.00    -0.131 NA
ATOM     33  C   UNL     1      -3.471   9.869  31.692  0.00  0.00    +0.120 A 
ATOM     34  C   UNL     1      -4.225  10.527  32.637  0.00  0.00    +0.137 A 
ATOM     35  N   UNL     1      -3.511  11.661  32.898  0.00  0.00    -0.247 N 
ATOM     36  N   UNL     1      -2.359  11.679  32.202  0.00  0.00    -0.065 NA
BRANCH  35  37
ATOM     37  C   UNL     1      -3.973  12.856  33.580  0.00  0.00    +0.180 C 
BRANCH  37  38
ATOM     38  C   UNL     1      -4.235  14.012  32.649  0.00  0.00    -0.025 A 
ATOM     39  C   UNL     1      -3.528  15.214  32.796  0.00  0.00    +0.005 A 
ATOM     40  C   UNL     1      -3.703  16.260  31.887  0.00  0.00    +0.002 A 
ATOM     41  C   UNL     1      -4.604  16.125  30.830  0.00  0.00    +0.019 A 
ATOM     42  C   UNL     1      -5.342  14.947  30.690  0.00  0.00    +0.052 A 
ATOM     43  C   UNL     1      -5.157  13.894  31.596  0.00  0.00    +0.024 A 
BRANCH  42  44
ATOM     44  C   UNL     1      -6.281  14.811  29.614  0.00  0.00    +0.099 C 
ATOM     45  N   UNL     1      -7.042  14.709  28.744  0.00  0.00    -0.191 NA
ENDBRANCH  42  44
ENDBRANCH  37  38
ENDBRANCH  35  37
ENDBRANCH  31  33
ENDBRANCH  30  31
ENDBRANCH  26  30
ENDBRANCH  25  28
ENDBRANCH   1  25
TORSDOF 16
