REMARK VINA RESULT:    -5.438      1.790      3.620
REMARK INTER + INTRA:         -13.047
REMARK INTER:                 -10.296
REMARK INTRA:                  -2.752
REMARK UNBOUND:                -2.840
REMARK  Name = lig_assembled_77.pdb
REMARK  19 active torsions:
REMARK  status: ('A' for Active; 'I' for Inactive)
REMARK    1  A    between atoms: _2  and  _10
REMARK    2  A    between atoms: _3  and  _17
REMARK    3  A    between atoms: _5  and  _27
REMARK    4  A    between atoms: _7  and  _8
REMARK    5  A    between atoms: _7  and  _27
REMARK    6  A    between atoms: _13  and  _47
REMARK    7  A    between atoms: _14  and  _47
REMARK    8  A    between atoms: _23  and  _43
REMARK    9  A    between atoms: _25  and  _31
REMARK   10  A    between atoms: _26  and  _30
REMARK   11  A    between atoms: _30  and  _31
REMARK   12  A    between atoms: _33  and  _34
REMARK   13  A    between atoms: _35  and  _36
REMARK   14  A    between atoms: _37  and  _39
REMARK   15  A    between atoms: _39  and  _40
REMARK   16  A    between atoms: _39  and  _41
REMARK   17  A    between atoms: _41  and  _42
REMARK   18  A    between atoms: _41  and  _43
REMARK   19  A    between atoms: _44  and  _46
REMARK                            x       y       z     vdW  Elec       q    Type
REMARK                         _______ _______ _______ _____ _____    ______ ____
ROOT
ATOM      1  C   UNL     1      -4.188   9.757  22.276  0.00  0.00    +0.401 C 
ATOM      2  O   UNL     1      -3.066   9.261  22.404  0.00  0.00    -0.226 OA
ATOM      3  N   UNL     1      -5.314   9.169  22.681  0.00  0.00    -0.279 N 
ATOM      4  H   UNL     1      -6.186   9.660  22.540  0.00  0.00    +0.152 HD
ENDROOT
BRANCH   3   5
ATOM      5  C   UNL     1      -5.358   7.847  23.319  0.00  0.00    +0.141 C 
BRANCH   5   6
ATOM      6  C   UNL     1      -5.924   7.917  24.733  0.00  0.00    +0.163 C 
BRANCH   6   7
ATOM      7  O   UNL     1      -6.597   6.689  25.055  0.00  0.00    -0.388 OA
ATOM      8  H   UNL     1      -7.361   6.583  24.482  0.00  0.00    +0.210 HD
ENDBRANCH   6   7
BRANCH   6   9
ATOM      9  C   UNL     1      -4.785   8.198  25.729  0.00  0.00    +0.175 C 
BRANCH   9  10
ATOM     10  C   UNL     1      -4.882   9.605  26.336  0.00  0.00    +0.176 C 
ATOM     11  O   UNL     1      -4.590  10.566  25.285  0.00  0.00    -0.332 OA
ATOM     12  C   UNL     1      -4.739  11.977  25.657  0.00  0.00    +0.277 C 
ATOM     13  C   UNL     1      -3.889  12.298  26.911  0.00  0.00    +0.110 C 
ATOM     14  C   UNL     1      -4.141  11.283  28.046  0.00  0.00    +0.143 C 
ATOM     15  C   UNL     1      -3.963   9.848  27.548  0.00  0.00    +0.133 C 
BRANCH  15  16
ATOM     16  N   UNL     1      -4.290   8.888  28.614  0.00  0.00    -0.308 N 
ATOM     17  H   UNL     1      -5.226   8.907  28.994  0.00  0.00    +0.149 HD
ATOM     18  C   UNL     1      -3.432   7.993  29.111  0.00  0.00    +0.210 C 
ATOM     19  C   UNL     1      -2.006   8.007  28.528  0.00  0.00    +0.109 C 
ATOM     20  O   UNL     1      -3.739   7.191  29.994  0.00  0.00    -0.276 OA
ENDBRANCH  15  16
BRANCH  12  21
ATOM     21  C   UNL     1      -6.218  12.316  25.936  0.00  0.00    +0.414 C 
ATOM     22  O   UNL     1      -7.104  11.872  25.207  0.00  0.00    -0.240 OA
ATOM     23  O   UNL     1      -6.525  13.032  26.890  0.00  0.00    -0.240 OA
ENDBRANCH  12  21
BRANCH  14  24
ATOM     24  O   UNL     1      -3.232  11.525  29.120  0.00  0.00    -0.390 OA
ATOM     25  H   UNL     1      -2.757  12.343  28.960  0.00  0.00    +0.210 HD
ENDBRANCH  14  24
BRANCH  12  26
ATOM     26  O   UNL     1      -4.252  12.785  24.556  0.00  0.00    -0.343 OA
ATOM     27  C   UNL     1      -2.808  12.870  24.449  0.00  0.00    +0.198 C 
ENDBRANCH  12  26
ENDBRANCH   9  10
BRANCH   9  28
ATOM     28  O   UNL     1      -3.508   8.021  25.084  0.00  0.00    -0.387 OA
ATOM     29  H   UNL     1      -3.562   7.294  24.460  0.00  0.00    +0.210 HD
ENDBRANCH   9  28
ENDBRANCH   6   9
ENDBRANCH   5   6
ENDBRANCH   3   5
BRANCH   1  30
ATOM     30  O   UNL     1      -4.312  11.043  21.663  0.00  0.00    -0.444 OA
BRANCH  30  31
ATOM     31  C   UNL     1      -5.666  11.245  21.248  0.00  0.00    +0.292 C 
BRANCH  31  33
ATOM     32  N   UNL     1      -6.825  12.115  19.245  0.00  0.00    -0.131 NA
ATOM     33  C   UNL     1      -5.727  11.529  19.801  0.00  0.00    +0.121 A 
ATOM     34  C   UNL     1      -4.795  11.294  18.817  0.00  0.00    +0.143 A 
ATOM     35  N   UNL     1      -5.372  11.769  17.661  0.00  0.00    -0.220 N 
ATOM     36  N   UNL     1      -6.607  12.249  17.944  0.00  0.00    -0.060 NA
BRANCH  35  37
ATOM     37  C   UNL     1      -4.817  11.850  16.356  0.00  0.00    +0.067 A 
ATOM     38  C   UNL     1      -3.702  11.077  15.998  0.00  0.00    +0.030 A 
ATOM     39  C   UNL     1      -3.096  11.257  14.751  0.00  0.00    +0.029 A 
ATOM     40  C   UNL     1      -3.607  12.206  13.863  0.00  0.00    +0.094 A 
ATOM     41  C   UNL     1      -4.771  12.916  14.173  0.00  0.00    +0.029 A 
ATOM     42  C   UNL     1      -5.368  12.747  15.424  0.00  0.00    +0.030 A 
BRANCH  40  43
ATOM     43  S   UNL     1      -2.792  12.485  12.304  0.00  0.00    +0.025 S 
ATOM     44  O   UNL     1      -1.666  11.566  12.267  0.00  0.00    -0.164 OA
ATOM     45  O   UNL     1      -3.809  12.450  11.270  0.00  0.00    -0.164 OA
BRANCH  43  46
ATOM     46  C   UNL     1      -2.120  14.134  12.291  0.00  0.00    +0.094 A 
ATOM     47  C   UNL     1      -0.759  14.358  12.504  0.00  0.00    +0.029 A 
ATOM     48  C   UNL     1      -0.276  15.671  12.549  0.00  0.00    +0.024 A 
ATOM     49  C   UNL     1      -1.128  16.763  12.337  0.00  0.00    +0.025 A 
ATOM     50  C   UNL     1      -2.493  16.520  12.155  0.00  0.00    +0.024 A 
ATOM     51  C   UNL     1      -2.989  15.214  12.110  0.00  0.00    +0.029 A 
BRANCH  49  52
ATOM     52  N   UNL     1      -0.670  18.065  12.554  0.00  0.00    -0.358 N 
ATOM     53  H   UNL     1       0.133  18.332  11.994  0.00  0.00    +0.142 HD
ATOM     54  H   UNL     1      -1.399  18.772  12.550  0.00  0.00    +0.142 HD
ENDBRANCH  49  52
ENDBRANCH  43  46
ENDBRANCH  40  43
ENDBRANCH  35  37
ENDBRANCH  31  33
ENDBRANCH  30  31
ENDBRANCH   1  30
TORSDOF 17
