REMARK VINA RESULT:    -4.285      3.898      7.605
REMARK INTER + INTRA:         -11.312
REMARK INTER:                  -8.163
REMARK INTRA:                  -3.149
REMARK UNBOUND:                -2.894
REMARK  Name = lig_assembled_17.pdb
REMARK  22 active torsions:
REMARK  status: ('A' for Active; 'I' for Inactive)
REMARK    1  A    between atoms: _2  and  _10
REMARK    2  A    between atoms: _3  and  _11
REMARK    3  A    between atoms: _3  and  _12
REMARK    4  A    between atoms: _3  and  _14
REMARK    5  A    between atoms: _5  and  _19
REMARK    6  A    between atoms: _6  and  _14
REMARK    7  A    between atoms: _7  and  _8
REMARK    8  A    between atoms: _7  and  _19
REMARK    9  A    between atoms: _10  and  _11
REMARK   10  A    between atoms: _12  and  _13
REMARK   11  A    between atoms: _15  and  _35
REMARK   12  A    between atoms: _17  and  _23
REMARK   13  A    between atoms: _18  and  _22
REMARK   14  A    between atoms: _22  and  _23
REMARK   15  A    between atoms: _25  and  _26
REMARK   16  A    between atoms: _27  and  _28
REMARK   17  A    between atoms: _29  and  _31
REMARK   18  A    between atoms: _31  and  _32
REMARK   19  A    between atoms: _31  and  _33
REMARK   20  A    between atoms: _33  and  _34
REMARK   21  A    between atoms: _33  and  _35
REMARK   22  A    between atoms: _36  and  _38
REMARK                            x       y       z     vdW  Elec       q    Type
REMARK                         _______ _______ _______ _____ _____    ______ ____
ROOT
ATOM      1  C   UNL     1      -2.948  11.974  23.093  0.00  0.00    +0.163 C 
ENDROOT
BRANCH   1   2
ATOM      2  O   UNL     1      -2.196  12.186  24.300  0.00  0.00    -0.388 OA
ATOM      3  H   UNL     1      -2.226  11.392  24.839  0.00  0.00    +0.210 HD
ENDBRANCH   1   2
BRANCH   1   4
ATOM      4  C   UNL     1      -3.847  10.732  23.216  0.00  0.00    +0.175 C 
BRANCH   4   5
ATOM      5  C   UNL     1      -3.984  10.259  24.670  0.00  0.00    +0.176 C 
ATOM      6  O   UNL     1      -3.015   9.197  24.888  0.00  0.00    -0.332 OA
ATOM      7  C   UNL     1      -2.928   8.690  26.261  0.00  0.00    +0.277 C 
ATOM      8  C   UNL     1      -4.322   8.238  26.761  0.00  0.00    +0.110 C 
ATOM      9  C   UNL     1      -5.392   9.324  26.522  0.00  0.00    +0.143 C 
ATOM     10  C   UNL     1      -5.394   9.780  25.062  0.00  0.00    +0.133 C 
BRANCH  10  11
ATOM     11  N   UNL     1      -6.357  10.875  24.866  0.00  0.00    -0.308 N 
ATOM     12  H   UNL     1      -6.205  11.734  25.376  0.00  0.00    +0.149 HD
ATOM     13  C   UNL     1      -7.419  10.808  24.059  0.00  0.00    +0.210 C 
ATOM     14  C   UNL     1      -7.638   9.476  23.317  0.00  0.00    +0.109 C 
ATOM     15  O   UNL     1      -8.201  11.746  23.903  0.00  0.00    -0.276 OA
ENDBRANCH  10  11
BRANCH   7  16
ATOM     16  C   UNL     1      -2.366   9.771  27.208  0.00  0.00    +0.414 C 
ATOM     17  O   UNL     1      -2.604   9.723  28.414  0.00  0.00    -0.240 OA
ATOM     18  O   UNL     1      -1.674  10.689  26.766  0.00  0.00    -0.240 OA
ENDBRANCH   7  16
BRANCH   9  19
ATOM     19  O   UNL     1      -6.682   8.810  26.856  0.00  0.00    -0.390 OA
ATOM     20  H   UNL     1      -7.276   8.926  26.111  0.00  0.00    +0.210 HD
ENDBRANCH   9  19
BRANCH   7  21
ATOM     21  O   UNL     1      -2.047   7.537  26.258  0.00  0.00    -0.343 OA
ATOM     22  C   UNL     1      -2.705   6.263  26.476  0.00  0.00    +0.198 C 
ENDBRANCH   7  21
ENDBRANCH   4   5
BRANCH   4  23
ATOM     23  O   UNL     1      -3.335   9.666  22.392  0.00  0.00    -0.387 OA
ATOM     24  H   UNL     1      -3.115  10.009  21.523  0.00  0.00    +0.210 HD
ENDBRANCH   4  23
ENDBRANCH   1   4
BRANCH   1  25
ATOM     25  C   UNL     1      -3.807  13.198  22.792  0.00  0.00    +0.141 C 
BRANCH  25  28
ATOM     26  C   UNL     1      -5.907  13.473  21.519  0.00  0.00    +0.401 C 
ATOM     27  O   UNL     1      -6.462  14.138  22.396  0.00  0.00    -0.226 OA
ATOM     28  N   UNL     1      -4.669  12.987  21.623  0.00  0.00    -0.279 N 
ATOM     29  H   UNL     1      -4.303  12.444  20.853  0.00  0.00    +0.152 HD
BRANCH  26  30
ATOM     30  O   UNL     1      -6.616  13.187  20.311  0.00  0.00    -0.444 OA
BRANCH  30  31
ATOM     31  C   UNL     1      -7.222  11.896  20.406  0.00  0.00    +0.292 C 
BRANCH  31  33
ATOM     32  N   UNL     1      -5.545  10.081  20.396  0.00  0.00    -0.131 NA
ATOM     33  C   UNL     1      -6.401  10.894  19.703  0.00  0.00    +0.120 A 
ATOM     34  C   UNL     1      -6.334  10.583  18.362  0.00  0.00    +0.137 A 
ATOM     35  N   UNL     1      -5.434   9.562  18.312  0.00  0.00    -0.250 N 
ATOM     36  N   UNL     1      -4.953   9.269  19.532  0.00  0.00    -0.065 NA
BRANCH  35  37
ATOM     37  C   UNL     1      -5.012   8.787  17.162  0.00  0.00    +0.160 C 
BRANCH  37  38
ATOM     38  C   UNL     1      -4.022   9.588  16.305  0.00  0.00    +0.107 C 
BRANCH  38  39
ATOM     39  N   UNL     1      -4.506  10.000  14.964  0.00  0.00    -0.301 NA
BRANCH  39  40
ATOM     40  C   UNL     1      -4.706  11.455  14.838  0.00  0.00    +0.081 C 
ATOM     41  C   UNL     1      -3.975  12.334  15.848  0.00  0.00    +0.020 C 
ENDBRANCH  39  40
BRANCH  39  42
ATOM     42  C   UNL     1      -3.599   9.442  13.940  0.00  0.00    +0.081 C 
ATOM     43  C   UNL     1      -2.287   8.882  14.480  0.00  0.00    +0.020 C 
ENDBRANCH  39  42
ENDBRANCH  38  39
ENDBRANCH  37  38
ENDBRANCH  35  37
ENDBRANCH  31  33
ENDBRANCH  30  31
ENDBRANCH  26  30
ENDBRANCH  25  28
ENDBRANCH   1  25
TORSDOF 18
