REMARK VINA RESULT:    -3.422      2.665      7.851
REMARK INTER + INTRA:         -11.234
REMARK INTER:                  -6.907
REMARK INTRA:                  -4.327
REMARK UNBOUND:                -4.711
REMARK  Name = lig_assembled_62.pdb
REMARK  20 active torsions:
REMARK  status: ('A' for Active; 'I' for Inactive)
REMARK    1  A    between atoms: _2  and  _10
REMARK    2  A    between atoms: _5  and  _19
REMARK    3  A    between atoms: _6  and  _10
REMARK    4  A    between atoms: _7  and  _8
REMARK    5  A    between atoms: _7  and  _19
REMARK    6  A    between atoms: _10  and  _11
REMARK    7  A    between atoms: _11  and  _14
REMARK    8  A    between atoms: _12  and  _14
REMARK    9  A    between atoms: _15  and  _35
REMARK   10  A    between atoms: _17  and  _23
REMARK   11  A    between atoms: _18  and  _22
REMARK   12  A    between atoms: _22  and  _23
REMARK   13  A    between atoms: _25  and  _26
REMARK   14  A    between atoms: _27  and  _28
REMARK   15  A    between atoms: _29  and  _31
REMARK   16  A    between atoms: _31  and  _32
REMARK   17  A    between atoms: _31  and  _33
REMARK   18  A    between atoms: _33  and  _34
REMARK   19  A    between atoms: _33  and  _35
REMARK   20  A    between atoms: _36  and  _38
REMARK                            x       y       z     vdW  Elec       q    Type
REMARK                         _______ _______ _______ _____ _____    ______ ____
ROOT
ATOM      1  C   UNL     1      -3.881  12.801  30.228  0.00  0.00    +0.163 C 
ENDROOT
BRANCH   1   2
ATOM      2  O   UNL     1      -2.891  12.404  31.191  0.00  0.00    -0.388 OA
ATOM      3  H   UNL     1      -2.638  11.491  31.034  0.00  0.00    +0.210 HD
ENDBRANCH   1   2
BRANCH   1   4
ATOM      4  C   UNL     1      -4.635  11.577  29.679  0.00  0.00    +0.175 C 
BRANCH   4   5
ATOM      5  C   UNL     1      -3.700  10.604  28.947  0.00  0.00    +0.176 C 
ATOM      6  O   UNL     1      -4.229  10.398  27.608  0.00  0.00    -0.332 OA
ATOM      7  C   UNL     1      -3.404   9.573  26.720  0.00  0.00    +0.277 C 
ATOM      8  C   UNL     1      -3.102   8.205  27.379  0.00  0.00    +0.110 C 
ATOM      9  C   UNL     1      -2.567   8.371  28.817  0.00  0.00    +0.143 C 
ATOM     10  C   UNL     1      -3.500   9.249  29.652  0.00  0.00    +0.133 C 
BRANCH  10  11
ATOM     11  N   UNL     1      -2.936   9.472  30.992  0.00  0.00    -0.308 N 
ATOM     12  H   UNL     1      -2.043   9.938  31.057  0.00  0.00    +0.149 HD
ATOM     13  C   UNL     1      -3.528   9.097  32.130  0.00  0.00    +0.210 C 
ATOM     14  C   UNL     1      -4.877   8.365  31.997  0.00  0.00    +0.109 C 
ATOM     15  O   UNL     1      -3.039   9.310  33.240  0.00  0.00    -0.276 OA
ENDBRANCH  10  11
BRANCH   7  16
ATOM     16  C   UNL     1      -2.079  10.287  26.384  0.00  0.00    +0.414 C 
ATOM     17  O   UNL     1      -2.080  11.472  26.051  0.00  0.00    -0.240 OA
ATOM     18  O   UNL     1      -1.009   9.680  26.447  0.00  0.00    -0.240 OA
ENDBRANCH   7  16
BRANCH   7  19
ATOM     19  O   UNL     1      -4.154   9.337  25.501  0.00  0.00    -0.343 OA
ATOM     20  C   UNL     1      -4.897   8.092  25.470  0.00  0.00    +0.198 C 
ENDBRANCH   7  19
BRANCH   9  21
ATOM     21  O   UNL     1      -2.446   7.090  29.438  0.00  0.00    -0.390 OA
ATOM     22  H   UNL     1      -2.210   6.435  28.777  0.00  0.00    +0.210 HD
ENDBRANCH   9  21
ENDBRANCH   4   5
BRANCH   4  23
ATOM     23  O   UNL     1      -5.697  12.001  28.802  0.00  0.00    -0.387 OA
ATOM     24  H   UNL     1      -6.219  11.239  28.538  0.00  0.00    +0.210 HD
ENDBRANCH   4  23
ENDBRANCH   1   4
BRANCH   1  25
ATOM     25  C   UNL     1      -4.874  13.766  30.868  0.00  0.00    +0.141 C 
BRANCH  25  28
ATOM     26  C   UNL     1      -5.971  15.907  30.306  0.00  0.00    +0.401 C 
ATOM     27  O   UNL     1      -6.339  16.130  31.462  0.00  0.00    -0.226 OA
ATOM     28  N   UNL     1      -5.287  14.823  29.938  0.00  0.00    -0.279 N 
ATOM     29  H   UNL     1      -5.038  14.725  28.964  0.00  0.00    +0.152 HD
BRANCH  26  30
ATOM     30  O   UNL     1      -6.290  16.852  29.281  0.00  0.00    -0.444 OA
BRANCH  30  31
ATOM     31  C   UNL     1      -7.549  16.512  28.693  0.00  0.00    +0.292 C 
BRANCH  31  33
ATOM     32  N   UNL     1      -7.710  14.176  27.885  0.00  0.00    -0.131 NA
ATOM     33  C   UNL     1      -7.368  15.481  27.653  0.00  0.00    +0.120 A 
ATOM     34  C   UNL     1      -6.875  15.595  26.372  0.00  0.00    +0.138 A 
ATOM     35  N   UNL     1      -6.928  14.323  25.880  0.00  0.00    -0.237 N 
ATOM     36  N   UNL     1      -7.439  13.475  26.793  0.00  0.00    -0.065 NA
BRANCH  35  37
ATOM     37  C   UNL     1      -6.558  13.823  24.567  0.00  0.00    +0.219 C 
BRANCH  37  38
ATOM     38  C   UNL     1      -5.813  12.503  24.696  0.00  0.00    +0.237 C 
ATOM     39  O   UNL     1      -5.966  11.546  23.942  0.00  0.00    -0.274 OA
ATOM     40  N   UNL     1      -4.876  12.437  25.692  0.00  0.00    -0.328 N 
ATOM     41  H   UNL     1      -4.634  13.217  26.290  0.00  0.00    +0.145 HD
ATOM     42  H   UNL     1      -4.358  11.573  25.795  0.00  0.00    +0.145 HD
ENDBRANCH  37  38
BRANCH  37  43
ATOM     43  C   UNL     1      -5.720  14.852  23.813  0.00  0.00    +0.195 C 
BRANCH  43  44
ATOM     44  O   UNL     1      -4.410  14.316  23.574  0.00  0.00    -0.380 OA
ATOM     45  C   UNL     1      -3.900  14.716  22.308  0.00  0.00    +0.194 C 
ENDBRANCH  43  44
ENDBRANCH  37  43
ENDBRANCH  35  37
ENDBRANCH  31  33
ENDBRANCH  30  31
ENDBRANCH  26  30
ENDBRANCH  25  28
ENDBRANCH   1  25
TORSDOF 17
