REMARK VINA RESULT:    -5.879      3.207      6.566
REMARK INTER + INTRA:         -14.430
REMARK INTER:                 -10.717
REMARK INTRA:                  -3.713
REMARK UNBOUND:                -3.396
REMARK  Name = lig_assembled_34.pdb
REMARK  19 active torsions:
REMARK  status: ('A' for Active; 'I' for Inactive)
REMARK    1  A    between atoms: _2  and  _9
REMARK    2  A    between atoms: _4  and  _37
REMARK    3  A    between atoms: _6  and  _7
REMARK    4  A    between atoms: _6  and  _37
REMARK    5  A    between atoms: _11  and  _12
REMARK    6  A    between atoms: _13  and  _14
REMARK    7  A    between atoms: _18  and  _31
REMARK    8  A    between atoms: _33  and  _53
REMARK    9  A    between atoms: _35  and  _41
REMARK   10  A    between atoms: _36  and  _40
REMARK   11  A    between atoms: _40  and  _41
REMARK   12  A    between atoms: _43  and  _44
REMARK   13  A    between atoms: _45  and  _46
REMARK   14  A    between atoms: _47  and  _49
REMARK   15  A    between atoms: _49  and  _50
REMARK   16  A    between atoms: _49  and  _51
REMARK   17  A    between atoms: _51  and  _52
REMARK   18  A    between atoms: _51  and  _53
REMARK   19  A    between atoms: _54  and  _56
REMARK                            x       y       z     vdW  Elec       q    Type
REMARK                         _______ _______ _______ _____ _____    ______ ____
ROOT
ATOM      1  N   UNL     1      -4.062   8.669  16.507  0.00  0.00    -0.131 NA
ATOM      2  C   UNL     1      -5.325   9.084  16.824  0.00  0.00    +0.121 A 
ATOM      3  C   UNL     1      -5.569  10.282  16.200  0.00  0.00    +0.143 A 
ATOM      4  N   UNL     1      -4.430  10.561  15.476  0.00  0.00    -0.220 N 
ATOM      5  N   UNL     1      -3.517   9.577  15.700  0.00  0.00    -0.060 NA
ENDROOT
BRANCH   4   6
ATOM      6  C   UNL     1      -4.201  11.647  14.590  0.00  0.00    +0.068 A 
ATOM      7  C   UNL     1      -4.001  11.398  13.228  0.00  0.00    +0.038 A 
ATOM      8  C   UNL     1      -3.642  12.414  12.309  0.00  0.00    +0.007 A 
ATOM      9  C   UNL     1      -3.555  13.742  12.775  0.00  0.00    -0.008 A 
ATOM     10  C   UNL     1      -3.808  13.993  14.146  0.00  0.00    +0.011 A 
ATOM     11  C   UNL     1      -4.110  12.960  15.050  0.00  0.00    +0.028 A 
BRANCH   9  12
ATOM     12  C   UNL     1      -3.135  14.913  11.939  0.00  0.00    +0.004 A 
ATOM     13  C   UNL     1      -4.023  15.644  11.206  0.00  0.00    +0.026 A 
ATOM     14  C   UNL     1      -5.450  15.309  11.126  0.00  0.00    +0.016 A 
ATOM     15  C   UNL     1      -6.267  15.922  10.256  0.00  0.00    +0.051 A 
ATOM     16  C   UNL     1      -5.756  16.991   9.365  0.00  0.00    +0.183 A 
ATOM     17  O   UNL     1      -6.476  17.515   8.520  0.00  0.00    -0.288 OA
ATOM     18  C   UNL     1      -4.371  17.454   9.583  0.00  0.00    +0.097 A 
ATOM     19  C   UNL     1      -3.577  16.842  10.470  0.00  0.00    +0.140 A 
ATOM     20  O   UNL     1      -2.336  17.400  10.738  0.00  0.00    -0.455 OA
ATOM     21  C   UNL     1      -1.423  16.659  11.440  0.00  0.00    +0.140 A 
ATOM     22  C   UNL     1      -0.160  17.228  11.603  0.00  0.00    +0.092 A 
ATOM     23  C   UNL     1       0.831  16.508  12.253  0.00  0.00    +0.120 A 
ATOM     24  C   UNL     1       0.596  15.202  12.669  0.00  0.00    +0.046 A 
ATOM     25  C   UNL     1      -0.679  14.650  12.510  0.00  0.00    +0.016 A 
ATOM     26  C   UNL     1      -1.725  15.397  11.949  0.00  0.00    +0.026 A 
BRANCH  23  27
ATOM     27  O   UNL     1       2.029  17.118  12.481  0.00  0.00    -0.507 OA
ATOM     28  H   UNL     1       2.392  17.380  11.619  0.00  0.00    +0.292 HD
ENDBRANCH  23  27
ENDBRANCH   9  12
BRANCH   8  29
ATOM     29  C   UNL     1      -3.302  11.965  10.902  0.00  0.00    +0.072 C 
ATOM     30  O   UNL     1      -4.277  11.892  10.087  0.00  0.00    -0.545 OA
ATOM     31  O   UNL     1      -2.108  11.623  10.653  0.00  0.00    -0.545 OA
ENDBRANCH   8  29
ENDBRANCH   4   6
BRANCH   2  32
ATOM     32  C   UNL     1      -6.217   8.303  17.703  0.00  0.00    +0.292 C 
BRANCH  32  33
ATOM     33  O   UNL     1      -6.764   9.130  18.733  0.00  0.00    -0.444 OA
BRANCH  33  34
ATOM     34  C   UNL     1      -6.771   8.412  19.969  0.00  0.00    +0.401 C 
ATOM     35  O   UNL     1      -6.370   7.246  19.987  0.00  0.00    -0.226 OA
ATOM     36  N   UNL     1      -7.216   9.064  21.045  0.00  0.00    -0.279 N 
ATOM     37  H   UNL     1      -7.515  10.022  20.932  0.00  0.00    +0.152 HD
BRANCH  36  38
ATOM     38  C   UNL     1      -7.295   8.466  22.384  0.00  0.00    +0.141 C 
BRANCH  38  39
ATOM     39  C   UNL     1      -6.421   9.208  23.390  0.00  0.00    +0.163 C 
BRANCH  39  40
ATOM     40  O   UNL     1      -7.121   9.353  24.636  0.00  0.00    -0.388 OA
ATOM     41  H   UNL     1      -6.920  10.211  25.019  0.00  0.00    +0.210 HD
ENDBRANCH  39  40
BRANCH  39  42
ATOM     42  C   UNL     1      -5.101   8.443  23.586  0.00  0.00    +0.175 C 
BRANCH  42  43
ATOM     43  C   UNL     1      -4.006   9.327  24.201  0.00  0.00    +0.176 C 
ATOM     44  O   UNL     1      -4.303   9.486  25.616  0.00  0.00    -0.332 OA
ATOM     45  C   UNL     1      -3.300  10.219  26.395  0.00  0.00    +0.277 C 
ATOM     46  C   UNL     1      -3.027  11.604  25.759  0.00  0.00    +0.110 C 
ATOM     47  C   UNL     1      -2.738  11.489  24.247  0.00  0.00    +0.143 C 
ATOM     48  C   UNL     1      -3.841  10.706  23.535  0.00  0.00    +0.133 C 
BRANCH  48  49
ATOM     49  N   UNL     1      -3.512  10.528  22.113  0.00  0.00    -0.308 N 
ATOM     50  H   UNL     1      -2.738   9.922  21.880  0.00  0.00    +0.149 HD
ATOM     51  C   UNL     1      -4.168  11.116  21.109  0.00  0.00    +0.210 C 
ATOM     52  C   UNL     1      -5.326  12.055  21.498  0.00  0.00    +0.109 C 
ATOM     53  O   UNL     1      -3.879  10.937  19.925  0.00  0.00    -0.276 OA
ENDBRANCH  48  49
BRANCH  45  54
ATOM     54  C   UNL     1      -1.982   9.421  26.480  0.00  0.00    +0.414 C 
ATOM     55  O   UNL     1      -2.002   8.191  26.491  0.00  0.00    -0.240 OA
ATOM     56  O   UNL     1      -0.901  10.007  26.536  0.00  0.00    -0.240 OA
ENDBRANCH  45  54
BRANCH  47  57
ATOM     57  O   UNL     1      -2.642  12.794  23.675  0.00  0.00    -0.390 OA
ATOM     58  H   UNL     1      -2.531  12.719  22.724  0.00  0.00    +0.210 HD
ENDBRANCH  47  57
BRANCH  45  59
ATOM     59  O   UNL     1      -3.832  10.426  27.729  0.00  0.00    -0.343 OA
ATOM     60  C   UNL     1      -5.204   9.995  27.915  0.00  0.00    +0.198 C 
ENDBRANCH  45  59
ENDBRANCH  42  43
BRANCH  42  61
ATOM     61  O   UNL     1      -4.651   7.898  22.329  0.00  0.00    -0.387 OA
ATOM     62  H   UNL     1      -4.002   8.488  21.938  0.00  0.00    +0.210 HD
ENDBRANCH  42  61
ENDBRANCH  39  42
ENDBRANCH  38  39
ENDBRANCH  36  38
ENDBRANCH  33  34
ENDBRANCH  32  33
ENDBRANCH   2  32
TORSDOF 17
