REMARK VINA RESULT:    -4.981      4.382      7.506
REMARK INTER + INTRA:         -10.631
REMARK INTER:                  -7.853
REMARK INTRA:                  -2.778
REMARK UNBOUND:                -2.010
REMARK  Name = lig_assembled_49.pdb
REMARK  16 active torsions:
REMARK  status: ('A' for Active; 'I' for Inactive)
REMARK    1  A    between atoms: _2  and  _9
REMARK    2  A    between atoms: _4  and  _17
REMARK    3  A    between atoms: _6  and  _7
REMARK    4  A    between atoms: _6  and  _17
REMARK    5  A    between atoms: _13  and  _33
REMARK    6  A    between atoms: _15  and  _21
REMARK    7  A    between atoms: _16  and  _20
REMARK    8  A    between atoms: _20  and  _21
REMARK    9  A    between atoms: _23  and  _24
REMARK   10  A    between atoms: _25  and  _26
REMARK   11  A    between atoms: _27  and  _29
REMARK   12  A    between atoms: _29  and  _30
REMARK   13  A    between atoms: _29  and  _31
REMARK   14  A    between atoms: _31  and  _32
REMARK   15  A    between atoms: _31  and  _33
REMARK   16  A    between atoms: _34  and  _36
REMARK                            x       y       z     vdW  Elec       q    Type
REMARK                         _______ _______ _______ _____ _____    ______ ____
ROOT
ATOM      1  C   UNL     1      -5.143   8.830  23.494  0.00  0.00    +0.175 C 
ENDROOT
BRANCH   1   2
ATOM      2  C   UNL     1      -4.030   9.599  24.221  0.00  0.00    +0.176 C 
ATOM      3  O   UNL     1      -4.330   9.581  25.644  0.00  0.00    -0.332 OA
ATOM      4  C   UNL     1      -3.314  10.181  26.514  0.00  0.00    +0.277 C 
ATOM      5  C   UNL     1      -3.002  11.629  26.063  0.00  0.00    +0.110 C 
ATOM      6  C   UNL     1      -2.707  11.703  24.550  0.00  0.00    +0.143 C 
ATOM      7  C   UNL     1      -3.827  11.047  23.740  0.00  0.00    +0.133 C 
BRANCH   7   8
ATOM      8  N   UNL     1      -3.494  11.047  22.307  0.00  0.00    -0.308 N 
ATOM      9  H   UNL     1      -2.702  10.496  22.007  0.00  0.00    +0.149 HD
ATOM     10  C   UNL     1      -4.169  11.727  21.377  0.00  0.00    +0.210 C 
ATOM     11  C   UNL     1      -5.355  12.578  21.870  0.00  0.00    +0.109 C 
ATOM     12  O   UNL     1      -3.876  11.697  20.181  0.00  0.00    -0.276 OA
ENDBRANCH   7   8
BRANCH   4  13
ATOM     13  C   UNL     1      -2.017   9.345  26.497  0.00  0.00    +0.414 C 
ATOM     14  O   UNL     1      -2.070   8.118  26.415  0.00  0.00    -0.240 OA
ATOM     15  O   UNL     1      -0.918   9.897  26.564  0.00  0.00    -0.240 OA
ENDBRANCH   4  13
BRANCH   6  16
ATOM     16  O   UNL     1      -2.576  13.068  24.151  0.00  0.00    -0.390 OA
ATOM     17  H   UNL     1      -2.918  13.176  23.260  0.00  0.00    +0.210 HD
ENDBRANCH   6  16
BRANCH   4  18
ATOM     18  O   UNL     1      -3.847  10.227  27.862  0.00  0.00    -0.343 OA
ATOM     19  C   UNL     1      -3.838  11.538  28.480  0.00  0.00    +0.198 C 
ENDBRANCH   4  18
ENDBRANCH   1   2
BRANCH   1  20
ATOM     20  O   UNL     1      -6.370   9.586  23.525  0.00  0.00    -0.387 OA
ATOM     21  H   UNL     1      -6.182  10.510  23.344  0.00  0.00    +0.210 HD
ENDBRANCH   1  20
BRANCH   1  22
ATOM     22  C   UNL     1      -5.367   7.431  24.093  0.00  0.00    +0.163 C 
BRANCH  22  23
ATOM     23  O   UNL     1      -4.135   6.881  24.588  0.00  0.00    -0.388 OA
ATOM     24  H   UNL     1      -4.301   6.412  25.410  0.00  0.00    +0.210 HD
ENDBRANCH  22  23
BRANCH  22  25
ATOM     25  C   UNL     1      -5.959   6.511  23.030  0.00  0.00    +0.141 C 
BRANCH  25  28
ATOM     26  C   UNL     1      -6.236   6.826  20.595  0.00  0.00    +0.401 C 
ATOM     27  O   UNL     1      -5.683   5.765  20.300  0.00  0.00    -0.226 OA
ATOM     28  N   UNL     1      -6.403   7.257  21.846  0.00  0.00    -0.279 N 
ATOM     29  H   UNL     1      -6.861   8.146  21.988  0.00  0.00    +0.152 HD
BRANCH  26  30
ATOM     30  O   UNL     1      -6.734   7.665  19.549  0.00  0.00    -0.444 OA
BRANCH  30  31
ATOM     31  C   UNL     1      -6.961   8.981  20.060  0.00  0.00    +0.292 C 
BRANCH  31  33
ATOM     32  N   UNL     1      -7.174  11.258  19.118  0.00  0.00    -0.131 NA
ATOM     33  C   UNL     1      -6.663   9.991  19.027  0.00  0.00    +0.120 A 
ATOM     34  C   UNL     1      -5.906   9.892  17.882  0.00  0.00    +0.137 A 
ATOM     35  N   UNL     1      -6.001  11.130  17.316  0.00  0.00    -0.248 N 
ATOM     36  N   UNL     1      -6.761  11.948  18.065  0.00  0.00    -0.065 NA
BRANCH  35  37
ATOM     37  C   UNL     1      -5.419  11.580  16.075  0.00  0.00    +0.109 C 
ATOM     38  C   UNL     1      -6.236  12.662  15.365  0.00  0.00    +0.027 C 
ATOM     39  C   UNL     1      -5.236  13.253  14.386  0.00  0.00    +0.002 C 
ATOM     40  C   UNL     1      -3.930  13.300  15.168  0.00  0.00    +0.002 C 
ATOM     41  C   UNL     1      -4.015  12.184  16.212  0.00  0.00    +0.027 C 
ENDBRANCH  35  37
ENDBRANCH  31  33
ENDBRANCH  30  31
ENDBRANCH  26  30
ENDBRANCH  25  28
ENDBRANCH  22  25
ENDBRANCH   1  22
TORSDOF 14
