REMARK VINA RESULT:    -4.377      3.048      7.955
REMARK INTER + INTRA:         -11.143
REMARK INTER:                  -8.092
REMARK INTRA:                  -3.050
REMARK UNBOUND:                -2.799
REMARK  Name = lig_assembled_55.pdb
REMARK  20 active torsions:
REMARK  status: ('A' for Active; 'I' for Inactive)
REMARK    1  A    between atoms: _2  and  _10
REMARK    2  A    between atoms: _3  and  _11
REMARK    3  A    between atoms: _3  and  _38
REMARK    4  A    between atoms: _5  and  _18
REMARK    5  A    between atoms: _6  and  _38
REMARK    6  A    between atoms: _7  and  _8
REMARK    7  A    between atoms: _7  and  _18
REMARK    8  A    between atoms: _10  and  _11
REMARK    9  A    between atoms: _14  and  _34
REMARK   10  A    between atoms: _16  and  _22
REMARK   11  A    between atoms: _17  and  _21
REMARK   12  A    between atoms: _21  and  _22
REMARK   13  A    between atoms: _24  and  _25
REMARK   14  A    between atoms: _26  and  _27
REMARK   15  A    between atoms: _28  and  _30
REMARK   16  A    between atoms: _30  and  _31
REMARK   17  A    between atoms: _30  and  _32
REMARK   18  A    between atoms: _32  and  _33
REMARK   19  A    between atoms: _32  and  _34
REMARK   20  A    between atoms: _35  and  _37
REMARK                            x       y       z     vdW  Elec       q    Type
REMARK                         _______ _______ _______ _____ _____    ______ ____
ROOT
ATOM      1  C   UNL     1      -2.754  11.315  25.992  0.00  0.00    +0.163 C 
ENDROOT
BRANCH   1   2
ATOM      2  O   UNL     1      -1.958  12.288  25.296  0.00  0.00    -0.388 OA
ATOM      3  H   UNL     1      -1.185  12.506  25.824  0.00  0.00    +0.210 HD
ENDBRANCH   1   2
BRANCH   1   4
ATOM      4  C   UNL     1      -3.834  10.726  25.068  0.00  0.00    +0.175 C 
BRANCH   4   5
ATOM      5  C   UNL     1      -4.864  11.781  24.637  0.00  0.00    +0.176 C 
ATOM      6  O   UNL     1      -4.220  12.671  23.684  0.00  0.00    -0.332 OA
ATOM      7  C   UNL     1      -5.087  13.686  23.079  0.00  0.00    +0.277 C 
ATOM      8  C   UNL     1      -5.794  14.518  24.177  0.00  0.00    +0.110 C 
ATOM      9  C   UNL     1      -6.467  13.614  25.231  0.00  0.00    +0.143 C 
ATOM     10  C   UNL     1      -5.476  12.594  25.792  0.00  0.00    +0.133 C 
BRANCH  10  11
ATOM     11  N   UNL     1      -6.150  11.683  26.731  0.00  0.00    -0.308 N 
ATOM     12  H   UNL     1      -6.838  11.045  26.357  0.00  0.00    +0.149 HD
ATOM     13  C   UNL     1      -5.912  11.645  28.045  0.00  0.00    +0.210 C 
ATOM     14  C   UNL     1      -4.877  12.649  28.588  0.00  0.00    +0.109 C 
ATOM     15  O   UNL     1      -6.481  10.861  28.805  0.00  0.00    -0.276 OA
ENDBRANCH  10  11
BRANCH   7  16
ATOM     16  C   UNL     1      -6.145  13.029  22.168  0.00  0.00    +0.414 C 
ATOM     17  O   UNL     1      -5.856  12.041  21.494  0.00  0.00    -0.240 OA
ATOM     18  O   UNL     1      -7.287  13.486  22.107  0.00  0.00    -0.240 OA
ENDBRANCH   7  16
BRANCH   7  19
ATOM     19  O   UNL     1      -4.254  14.578  22.294  0.00  0.00    -0.343 OA
ATOM     20  C   UNL     1      -4.700  15.957  22.256  0.00  0.00    +0.198 C 
ENDBRANCH   7  19
BRANCH   9  21
ATOM     21  O   UNL     1      -6.974  14.415  26.299  0.00  0.00    -0.390 OA
ATOM     22  H   UNL     1      -7.292  15.251  25.950  0.00  0.00    +0.210 HD
ENDBRANCH   9  21
ENDBRANCH   4   5
BRANCH   4  23
ATOM     23  O   UNL     1      -4.496   9.622  25.718  0.00  0.00    -0.387 OA
ATOM     24  H   UNL     1      -3.904   8.867  25.748  0.00  0.00    +0.210 HD
ENDBRANCH   4  23
ENDBRANCH   1   4
BRANCH   1  25
ATOM     25  C   UNL     1      -1.866  10.192  26.518  0.00  0.00    +0.141 C 
BRANCH  25  28
ATOM     26  C   UNL     1      -2.038   8.627  28.422  0.00  0.00    +0.401 C 
ATOM     27  O   UNL     1      -1.634   7.654  27.780  0.00  0.00    -0.226 OA
ATOM     28  N   UNL     1      -2.183   9.849  27.910  0.00  0.00    -0.279 N 
ATOM     29  H   UNL     1      -2.530  10.581  28.513  0.00  0.00    +0.152 HD
BRANCH  26  30
ATOM     30  O   UNL     1      -2.381   8.456  29.799  0.00  0.00    -0.444 OA
BRANCH  30  31
ATOM     31  C   UNL     1      -3.731   8.876  30.011  0.00  0.00    +0.292 C 
BRANCH  31  33
ATOM     32  N   UNL     1      -2.665  10.333  31.701  0.00  0.00    -0.131 NA
ATOM     33  C   UNL     1      -3.806   9.821  31.141  0.00  0.00    +0.120 A 
ATOM     34  C   UNL     1      -4.901  10.332  31.803  0.00  0.00    +0.137 A 
ATOM     35  N   UNL     1      -4.360  11.131  32.765  0.00  0.00    -0.250 N 
ATOM     36  N   UNL     1      -3.016  11.131  32.698  0.00  0.00    -0.065 NA
BRANCH  35  37
ATOM     37  C   UNL     1      -5.048  11.937  33.750  0.00  0.00    +0.162 C 
BRANCH  37  38
ATOM     38  C   UNL     1      -4.976  13.443  33.478  0.00  0.00    +0.129 C 
BRANCH  38  39
ATOM     39  N   UNL     1      -4.350  13.787  32.168  0.00  0.00    -0.193 NA
ATOM     40  H   UNL     1      -5.062  14.121  31.506  0.00  0.00    +0.148 HD
BRANCH  39  41
ATOM     41  S   UNL     1      -2.992  14.781  32.230  0.00  0.00    +0.027 S 
ATOM     42  O   UNL     1      -2.084  14.309  31.207  0.00  0.00    -0.158 OA
ATOM     43  O   UNL     1      -3.454  16.151  32.251  0.00  0.00    -0.158 OA
ATOM     44  C   UNL     1      -2.313  14.360  33.818  0.00  0.00    +0.214 C 
ENDBRANCH  39  41
ENDBRANCH  38  39
ENDBRANCH  37  38
ENDBRANCH  35  37
ENDBRANCH  31  33
ENDBRANCH  30  31
ENDBRANCH  26  30
ENDBRANCH  25  28
ENDBRANCH   1  25
TORSDOF 17
