REMARK VINA RESULT:    -4.517      3.999      9.466
REMARK INTER + INTRA:         -11.798
REMARK INTER:                  -8.959
REMARK INTRA:                  -2.840
REMARK UNBOUND:                -3.320
REMARK  Name = lig_assembled_16.pdb
REMARK  19 active torsions:
REMARK  status: ('A' for Active; 'I' for Inactive)
REMARK    1  A    between atoms: _2  and  _9
REMARK    2  A    between atoms: _4  and  _22
REMARK    3  A    between atoms: _6  and  _7
REMARK    4  A    between atoms: _6  and  _22
REMARK    5  A    between atoms: _9  and  _10
REMARK    6  A    between atoms: _13  and  _14
REMARK    7  A    between atoms: _14  and  _16
REMARK    8  A    between atoms: _18  and  _38
REMARK    9  A    between atoms: _20  and  _26
REMARK   10  A    between atoms: _21  and  _25
REMARK   11  A    between atoms: _25  and  _26
REMARK   12  A    between atoms: _28  and  _29
REMARK   13  A    between atoms: _30  and  _31
REMARK   14  A    between atoms: _32  and  _34
REMARK   15  A    between atoms: _34  and  _35
REMARK   16  A    between atoms: _34  and  _36
REMARK   17  A    between atoms: _36  and  _37
REMARK   18  A    between atoms: _36  and  _38
REMARK   19  A    between atoms: _39  and  _41
REMARK                            x       y       z     vdW  Elec       q    Type
REMARK                         _______ _______ _______ _____ _____    ______ ____
ROOT
ATOM      1  C   UNL     1      -2.962  11.711  24.214  0.00  0.00    +0.163 C 
ENDROOT
BRANCH   1   2
ATOM      2  O   UNL     1      -2.088  11.742  25.354  0.00  0.00    -0.388 OA
ATOM      3  H   UNL     1      -2.050  10.870  25.753  0.00  0.00    +0.210 HD
ENDBRANCH   1   2
BRANCH   1   4
ATOM      4  C   UNL     1      -4.147  10.760  24.454  0.00  0.00    +0.175 C 
BRANCH   4   5
ATOM      5  C   UNL     1      -3.933   9.870  25.688  0.00  0.00    +0.176 C 
ATOM      6  O   UNL     1      -2.972   8.838  25.334  0.00  0.00    -0.332 OA
ATOM      7  C   UNL     1      -2.561   7.952  26.427  0.00  0.00    +0.277 C 
ATOM      8  C   UNL     1      -3.800   7.306  27.094  0.00  0.00    +0.110 C 
ATOM      9  C   UNL     1      -4.865   8.362  27.460  0.00  0.00    +0.143 C 
ATOM     10  C   UNL     1      -5.215   9.230  26.251  0.00  0.00    +0.133 C 
BRANCH  10  11
ATOM     11  N   UNL     1      -6.165  10.287  26.634  0.00  0.00    -0.308 N 
ATOM     12  H   UNL     1      -5.881  10.939  27.351  0.00  0.00    +0.149 HD
ATOM     13  C   UNL     1      -7.377  10.440  26.095  0.00  0.00    +0.210 C 
ATOM     14  C   UNL     1      -7.791   9.414  25.023  0.00  0.00    +0.109 C 
ATOM     15  O   UNL     1      -8.146  11.344  26.425  0.00  0.00    -0.276 OA
ENDBRANCH  10  11
BRANCH   7  16
ATOM     16  C   UNL     1      -1.751   8.728  27.486  0.00  0.00    +0.414 C 
ATOM     17  O   UNL     1      -1.202   9.790  27.191  0.00  0.00    -0.240 OA
ATOM     18  O   UNL     1      -1.647   8.294  28.634  0.00  0.00    -0.240 OA
ENDBRANCH   7  16
BRANCH   7  19
ATOM     19  O   UNL     1      -1.742   6.895  25.864  0.00  0.00    -0.343 OA
ATOM     20  C   UNL     1      -2.283   5.558  26.010  0.00  0.00    +0.198 C 
ENDBRANCH   7  19
BRANCH   9  21
ATOM     21  O   UNL     1      -6.046   7.712  27.931  0.00  0.00    -0.390 OA
ATOM     22  H   UNL     1      -5.829   7.161  28.687  0.00  0.00    +0.210 HD
ENDBRANCH   9  21
ENDBRANCH   4   5
BRANCH   4  23
ATOM     23  O   UNL     1      -4.374   9.944  23.288  0.00  0.00    -0.387 OA
ATOM     24  H   UNL     1      -3.929   9.100  23.395  0.00  0.00    +0.210 HD
ENDBRANCH   4  23
ENDBRANCH   1   4
BRANCH   1  25
ATOM     25  C   UNL     1      -3.486  13.113  23.919  0.00  0.00    +0.141 C 
BRANCH  25  28
ATOM     26  C   UNL     1      -4.484  13.130  21.659  0.00  0.00    +0.401 C 
ATOM     27  O   UNL     1      -3.399  13.204  21.078  0.00  0.00    -0.226 OA
ATOM     28  N   UNL     1      -4.618  13.089  22.985  0.00  0.00    -0.279 N 
ATOM     29  H   UNL     1      -5.552  13.038  23.369  0.00  0.00    +0.152 HD
BRANCH  26  30
ATOM     30  O   UNL     1      -5.686  13.089  20.885  0.00  0.00    -0.444 OA
BRANCH  30  31
ATOM     31  C   UNL     1      -6.343  11.835  21.088  0.00  0.00    +0.292 C 
BRANCH  31  33
ATOM     32  N   UNL     1      -5.036   9.858  20.368  0.00  0.00    -0.131 NA
ATOM     33  C   UNL     1      -5.917  10.864  20.064  0.00  0.00    +0.120 A 
ATOM     34  C   UNL     1      -6.291  10.752  18.744  0.00  0.00    +0.137 A 
ATOM     35  N   UNL     1      -5.679   9.607  18.330  0.00  0.00    -0.247 N 
ATOM     36  N   UNL     1      -4.883   9.100  19.289  0.00  0.00    -0.065 NA
BRANCH  35  37
ATOM     37  C   UNL     1      -5.823   8.931  17.057  0.00  0.00    +0.180 C 
BRANCH  37  38
ATOM     38  C   UNL     1      -5.083   9.661  15.959  0.00  0.00    -0.026 A 
ATOM     39  C   UNL     1      -5.753  10.565  15.123  0.00  0.00    +0.006 A 
ATOM     40  C   UNL     1      -5.056  11.266  14.134  0.00  0.00    +0.015 A 
ATOM     41  C   UNL     1      -3.686  11.064  13.958  0.00  0.00    +0.059 A 
ATOM     42  C   UNL     1      -3.008  10.145  14.774  0.00  0.00    +0.015 A 
ATOM     43  C   UNL     1      -3.710   9.441  15.758  0.00  0.00    +0.006 A 
BRANCH  41  44
ATOM     44  C   UNL     1      -2.980  11.889  12.942  0.00  0.00    +0.337 C 
ATOM     45  O   UNL     1      -3.399  12.973  12.571  0.00  0.00    -0.245 OA
BRANCH  44  46
ATOM     46  O   UNL     1      -1.866  11.319  12.446  0.00  0.00    -0.477 OA
ATOM     47  H   UNL     1      -1.995  10.788  11.639  0.00  0.00    +0.295 HD
ENDBRANCH  44  46
ENDBRANCH  41  44
ENDBRANCH  37  38
ENDBRANCH  35  37
ENDBRANCH  31  33
ENDBRANCH  30  31
ENDBRANCH  26  30
ENDBRANCH  25  28
ENDBRANCH   1  25
TORSDOF 17
