REMARK VINA RESULT:    -5.092      4.555      7.004
REMARK INTER + INTRA:         -11.214
REMARK INTER:                  -9.482
REMARK INTRA:                  -1.732
REMARK UNBOUND:                -1.954
REMARK  Name = lig_assembled_60.pdb
REMARK  18 active torsions:
REMARK  status: ('A' for Active; 'I' for Inactive)
REMARK    1  A    between atoms: _2  and  _10
REMARK    2  A    between atoms: _3  and  _41
REMARK    3  A    between atoms: _5  and  _21
REMARK    4  A    between atoms: _7  and  _8
REMARK    5  A    between atoms: _7  and  _21
REMARK    6  A    between atoms: _13  and  _41
REMARK    7  A    between atoms: _17  and  _37
REMARK    8  A    between atoms: _19  and  _25
REMARK    9  A    between atoms: _20  and  _24
REMARK   10  A    between atoms: _24  and  _25
REMARK   11  A    between atoms: _27  and  _28
REMARK   12  A    between atoms: _29  and  _30
REMARK   13  A    between atoms: _31  and  _33
REMARK   14  A    between atoms: _33  and  _34
REMARK   15  A    between atoms: _33  and  _35
REMARK   16  A    between atoms: _35  and  _36
REMARK   17  A    between atoms: _35  and  _37
REMARK   18  A    between atoms: _38  and  _40
REMARK                            x       y       z     vdW  Elec       q    Type
REMARK                         _______ _______ _______ _____ _____    ______ ____
ROOT
ATOM      1  C   UNL     1      -5.766  11.008  18.860  0.00  0.00    +0.141 C 
ENDROOT
BRANCH   1   4
ATOM      2  C   UNL     1      -4.450  11.519  20.888  0.00  0.00    +0.401 C 
ATOM      3  O   UNL     1      -5.228  12.390  21.287  0.00  0.00    -0.226 OA
ATOM      4  N   UNL     1      -4.621  10.827  19.761  0.00  0.00    -0.279 N 
ATOM      5  H   UNL     1      -3.923  10.140  19.513  0.00  0.00    +0.152 HD
BRANCH   2   6
ATOM      6  O   UNL     1      -3.287  11.220  21.663  0.00  0.00    -0.444 OA
BRANCH   6   7
ATOM      7  C   UNL     1      -3.149  12.183  22.711  0.00  0.00    +0.292 C 
BRANCH   7   9
ATOM      8  N   UNL     1      -2.964  10.180  24.154  0.00  0.00    -0.131 NA
ATOM      9  C   UNL     1      -3.195  11.519  24.027  0.00  0.00    +0.121 A 
ATOM     10  C   UNL     1      -3.439  12.053  25.271  0.00  0.00    +0.143 A 
ATOM     11  N   UNL     1      -3.310  10.996  26.144  0.00  0.00    -0.220 N 
ATOM     12  N   UNL     1      -3.045   9.868  25.441  0.00  0.00    -0.060 NA
BRANCH  11  13
ATOM     13  C   UNL     1      -3.378  11.005  27.561  0.00  0.00    +0.067 A 
ATOM     14  C   UNL     1      -3.913  12.108  28.244  0.00  0.00    +0.030 A 
ATOM     15  C   UNL     1      -3.911  12.136  29.640  0.00  0.00    +0.030 A 
ATOM     16  C   UNL     1      -3.390  11.056  30.356  0.00  0.00    +0.105 A 
ATOM     17  C   UNL     1      -2.870   9.944  29.686  0.00  0.00    +0.030 A 
ATOM     18  C   UNL     1      -2.871   9.916  28.289  0.00  0.00    +0.030 A 
BRANCH  16  19
ATOM     19  S   UNL     1      -3.323  11.138  32.121  0.00  0.00    +0.056 S 
ATOM     20  O   UNL     1      -4.340  12.047  32.595  0.00  0.00    -0.153 OA
ATOM     21  O   UNL     1      -3.166   9.803  32.650  0.00  0.00    -0.153 OA
BRANCH  19  22
ATOM     22  N   UNL     1      -1.856  11.911  32.370  0.00  0.00    -0.204 NA
ATOM     23  H   UNL     1      -1.442  11.595  33.247  0.00  0.00    +0.144 HD
ATOM     24  H   UNL     1      -1.985  12.922  32.316  0.00  0.00    +0.144 HD
ENDBRANCH  19  22
ENDBRANCH  16  19
ENDBRANCH  11  13
ENDBRANCH   7   9
ENDBRANCH   6   7
ENDBRANCH   2   6
ENDBRANCH   1   4
BRANCH   1  25
ATOM     25  C   UNL     1      -5.378  10.804  17.399  0.00  0.00    +0.163 C 
BRANCH  25  26
ATOM     26  O   UNL     1      -4.364  11.751  17.023  0.00  0.00    -0.388 OA
ATOM     27  H   UNL     1      -3.865  12.012  17.801  0.00  0.00    +0.210 HD
ENDBRANCH  25  26
BRANCH  25  28
ATOM     28  C   UNL     1      -4.886   9.361  17.195  0.00  0.00    +0.175 C 
BRANCH  28  29
ATOM     29  C   UNL     1      -4.137   9.189  15.865  0.00  0.00    +0.176 C 
ATOM     30  O   UNL     1      -4.878   9.905  14.839  0.00  0.00    -0.332 OA
ATOM     31  C   UNL     1      -4.252   9.940  13.513  0.00  0.00    +0.277 C 
ATOM     32  C   UNL     1      -3.936   8.505  13.026  0.00  0.00    +0.110 C 
ATOM     33  C   UNL     1      -3.176   7.694  14.097  0.00  0.00    +0.143 C 
ATOM     34  C   UNL     1      -3.914   7.727  15.436  0.00  0.00    +0.133 C 
BRANCH  34  35
ATOM     35  N   UNL     1      -3.137   7.024  16.469  0.00  0.00    -0.308 N 
ATOM     36  H   UNL     1      -2.272   7.446  16.777  0.00  0.00    +0.149 HD
ATOM     37  C   UNL     1      -3.500   5.866  17.027  0.00  0.00    +0.210 C 
ATOM     38  C   UNL     1      -4.810   5.236  16.517  0.00  0.00    +0.109 C 
ATOM     39  O   UNL     1      -2.836   5.308  17.901  0.00  0.00    -0.276 OA
ENDBRANCH  34  35
BRANCH  31  40
ATOM     40  C   UNL     1      -2.953  10.772  13.544  0.00  0.00    +0.414 C 
ATOM     41  O   UNL     1      -1.891  10.277  13.168  0.00  0.00    -0.240 OA
ATOM     42  O   UNL     1      -2.967  11.937  13.943  0.00  0.00    -0.240 OA
ENDBRANCH  31  40
BRANCH  33  43
ATOM     43  O   UNL     1      -3.040   6.338  13.668  0.00  0.00    -0.390 OA
ATOM     44  H   UNL     1      -3.704   6.144  13.003  0.00  0.00    +0.210 HD
ENDBRANCH  33  43
BRANCH  31  45
ATOM     45  O   UNL     1      -5.195  10.540  12.588  0.00  0.00    -0.343 OA
ATOM     46  C   UNL     1      -6.587  10.441  12.981  0.00  0.00    +0.198 C 
ENDBRANCH  31  45
ENDBRANCH  28  29
BRANCH  28  47
ATOM     47  O   UNL     1      -5.995   8.443  17.262  0.00  0.00    -0.387 OA
ATOM     48  H   UNL     1      -6.794   8.923  17.495  0.00  0.00    +0.210 HD
ENDBRANCH  28  47
ENDBRANCH  25  28
ENDBRANCH   1  25
TORSDOF 16
