REMARK VINA RESULT:    -4.016      2.962      5.481
REMARK INTER + INTRA:         -12.740
REMARK INTER:                  -7.997
REMARK INTRA:                  -4.743
REMARK UNBOUND:                -4.498
REMARK  Name = lig_assembled_33.pdb
REMARK  22 active torsions:
REMARK  status: ('A' for Active; 'I' for Inactive)
REMARK    1  A    between atoms: _2  and  _9
REMARK    2  A    between atoms: _4  and  _20
REMARK    3  A    between atoms: _5  and  _13
REMARK    4  A    between atoms: _5  and  _14
REMARK    5  A    between atoms: _6  and  _7
REMARK    6  A    between atoms: _6  and  _20
REMARK    7  A    between atoms: _9  and  _10
REMARK    8  A    between atoms: _10  and  _11
REMARK    9  A    between atoms: _11  and  _12
REMARK   10  A    between atoms: _12  and  _13
REMARK   11  A    between atoms: _16  and  _36
REMARK   12  A    between atoms: _18  and  _24
REMARK   13  A    between atoms: _19  and  _23
REMARK   14  A    between atoms: _23  and  _24
REMARK   15  A    between atoms: _26  and  _27
REMARK   16  A    between atoms: _28  and  _29
REMARK   17  A    between atoms: _30  and  _32
REMARK   18  A    between atoms: _32  and  _33
REMARK   19  A    between atoms: _32  and  _34
REMARK   20  A    between atoms: _34  and  _35
REMARK   21  A    between atoms: _34  and  _36
REMARK   22  A    between atoms: _37  and  _39
REMARK                            x       y       z     vdW  Elec       q    Type
REMARK                         _______ _______ _______ _____ _____    ______ ____
ROOT
ATOM      1  C   UNL     1      -2.925  11.726  24.542  0.00  0.00    +0.163 C 
ENDROOT
BRANCH   1   2
ATOM      2  O   UNL     1      -1.968  11.593  25.606  0.00  0.00    -0.388 OA
ATOM      3  H   UNL     1      -2.412  11.282  26.399  0.00  0.00    +0.210 HD
ENDBRANCH   1   2
BRANCH   1   4
ATOM      4  C   UNL     1      -4.198  10.917  24.842  0.00  0.00    +0.175 C 
BRANCH   4   5
ATOM      5  C   UNL     1      -3.997   9.933  26.004  0.00  0.00    +0.176 C 
ATOM      6  O   UNL     1      -3.012   8.947  25.590  0.00  0.00    -0.332 OA
ATOM      7  C   UNL     1      -2.612   7.980  26.617  0.00  0.00    +0.277 C 
ATOM      8  C   UNL     1      -3.855   7.266  27.201  0.00  0.00    +0.110 C 
ATOM      9  C   UNL     1      -4.944   8.273  27.626  0.00  0.00    +0.143 C 
ATOM     10  C   UNL     1      -5.281   9.232  26.484  0.00  0.00    +0.133 C 
BRANCH  10  11
ATOM     11  N   UNL     1      -6.255  10.241  26.928  0.00  0.00    -0.308 N 
ATOM     12  H   UNL     1      -5.974  10.877  27.661  0.00  0.00    +0.149 HD
ATOM     13  C   UNL     1      -7.487  10.370  26.427  0.00  0.00    +0.210 C 
ATOM     14  C   UNL     1      -7.894   9.368  25.331  0.00  0.00    +0.109 C 
ATOM     15  O   UNL     1      -8.277  11.234  26.809  0.00  0.00    -0.276 OA
ENDBRANCH  10  11
BRANCH   7  16
ATOM     16  C   UNL     1      -1.838   8.680  27.754  0.00  0.00    +0.414 C 
ATOM     17  O   UNL     1      -1.104   9.636  27.507  0.00  0.00    -0.240 OA
ATOM     18  O   UNL     1      -1.946   8.287  28.916  0.00  0.00    -0.240 OA
ENDBRANCH   7  16
BRANCH   9  19
ATOM     19  O   UNL     1      -6.125   7.571  28.016  0.00  0.00    -0.390 OA
ATOM     20  H   UNL     1      -6.159   6.726  27.561  0.00  0.00    +0.210 HD
ENDBRANCH   9  19
BRANCH   7  21
ATOM     21  O   UNL     1      -1.764   6.984  25.990  0.00  0.00    -0.343 OA
ATOM     22  C   UNL     1      -2.085   5.610  26.322  0.00  0.00    +0.198 C 
ENDBRANCH   7  21
ENDBRANCH   4   5
BRANCH   4  23
ATOM     23  O   UNL     1      -4.626  10.209  23.661  0.00  0.00    -0.387 OA
ATOM     24  H   UNL     1      -4.236   9.332  23.654  0.00  0.00    +0.210 HD
ENDBRANCH   4  23
ENDBRANCH   1   4
BRANCH   1  25
ATOM     25  C   UNL     1      -3.289  13.195  24.347  0.00  0.00    +0.141 C 
BRANCH  25  28
ATOM     26  C   UNL     1      -4.923  14.224  22.807  0.00  0.00    +0.401 C 
ATOM     27  O   UNL     1      -4.102  14.992  22.299  0.00  0.00    -0.226 OA
ATOM     28  N   UNL     1      -4.631  13.355  23.775  0.00  0.00    -0.279 N 
ATOM     29  H   UNL     1      -5.375  12.773  24.134  0.00  0.00    +0.152 HD
BRANCH  26  30
ATOM     30  O   UNL     1      -6.277  14.253  22.348  0.00  0.00    -0.444 OA
BRANCH  30  31
ATOM     31  C   UNL     1      -6.998  13.158  22.919  0.00  0.00    +0.292 C 
BRANCH  31  33
ATOM     32  N   UNL     1      -7.094  10.806  22.161  0.00  0.00    -0.131 NA
ATOM     33  C   UNL     1      -7.280  12.137  21.894  0.00  0.00    +0.120 A 
ATOM     34  C   UNL     1      -7.731  12.277  20.599  0.00  0.00    +0.137 A 
ATOM     35  N   UNL     1      -7.806  10.997  20.140  0.00  0.00    -0.251 N 
ATOM     36  N   UNL     1      -7.406  10.118  21.073  0.00  0.00    -0.065 NA
BRANCH  35  37
ATOM     37  C   UNL     1      -8.230  10.537  18.834  0.00  0.00    +0.145 C 
BRANCH  37  38
ATOM     38  C   UNL     1      -7.075   9.942  18.031  0.00  0.00    +0.023 C 
BRANCH  38  39
ATOM     39  C   UNL     1      -6.118  11.010  17.496  0.00  0.00    +0.002 C 
BRANCH  39  40
ATOM     40  C   UNL     1      -4.739  10.843  18.138  0.00  0.00    +0.011 C 
BRANCH  40  41
ATOM     41  C   UNL     1      -4.474  11.858  19.247  0.00  0.00    +0.120 C 
BRANCH  41  42
ATOM     42  C   UNL     1      -3.955  11.183  20.497  0.00  0.00    +0.305 C 
ATOM     43  O   UNL     1      -3.162  11.670  21.287  0.00  0.00    -0.251 OA
BRANCH  42  44
ATOM     44  O   UNL     1      -4.474   9.945  20.667  0.00  0.00    -0.481 OA
ATOM     45  H   UNL     1      -5.396   9.944  20.984  0.00  0.00    +0.295 HD
ENDBRANCH  42  44
ENDBRANCH  41  42
ENDBRANCH  40  41
ENDBRANCH  39  40
ENDBRANCH  38  39
ENDBRANCH  37  38
ENDBRANCH  35  37
ENDBRANCH  31  33
ENDBRANCH  30  31
ENDBRANCH  26  30
ENDBRANCH  25  28
ENDBRANCH   1  25
TORSDOF 20
