REMARK VINA RESULT:    -3.845      2.562      8.035
REMARK INTER + INTRA:         -12.416
REMARK INTER:                  -8.154
REMARK INTRA:                  -4.261
REMARK UNBOUND:                -4.638
REMARK  Name = lig_assembled_11.pdb
REMARK  22 active torsions:
REMARK  status: ('A' for Active; 'I' for Inactive)
REMARK    1  A    between atoms: _2  and  _9
REMARK    2  A    between atoms: _4  and  _21
REMARK    3  A    between atoms: _5  and  _9
REMARK    4  A    between atoms: _5  and  _13
REMARK    5  A    between atoms: _6  and  _7
REMARK    6  A    between atoms: _6  and  _21
REMARK    7  A    between atoms: _9  and  _10
REMARK    8  A    between atoms: _10  and  _11
REMARK    9  A    between atoms: _11  and  _12
REMARK   10  A    between atoms: _12  and  _15
REMARK   11  A    between atoms: _17  and  _37
REMARK   12  A    between atoms: _19  and  _25
REMARK   13  A    between atoms: _20  and  _24
REMARK   14  A    between atoms: _24  and  _25
REMARK   15  A    between atoms: _27  and  _28
REMARK   16  A    between atoms: _29  and  _30
REMARK   17  A    between atoms: _31  and  _33
REMARK   18  A    between atoms: _33  and  _34
REMARK   19  A    between atoms: _33  and  _35
REMARK   20  A    between atoms: _35  and  _36
REMARK   21  A    between atoms: _35  and  _37
REMARK   22  A    between atoms: _38  and  _40
REMARK                            x       y       z     vdW  Elec       q    Type
REMARK                         _______ _______ _______ _____ _____    ______ ____
ROOT
ATOM      1  C   UNL     1      -3.567  10.889  29.995  0.00  0.00    +0.163 C 
ENDROOT
BRANCH   1   2
ATOM      2  O   UNL     1      -3.082  11.129  28.664  0.00  0.00    -0.388 OA
ATOM      3  H   UNL     1      -3.813  11.080  28.043  0.00  0.00    +0.210 HD
ENDBRANCH   1   2
BRANCH   1   4
ATOM      4  C   UNL     1      -5.089  10.663  29.994  0.00  0.00    +0.175 C 
BRANCH   4   5
ATOM      5  C   UNL     1      -5.869  11.985  30.049  0.00  0.00    +0.176 C 
ATOM      6  O   UNL     1      -5.877  12.556  28.712  0.00  0.00    -0.332 OA
ATOM      7  C   UNL     1      -6.671  13.777  28.549  0.00  0.00    +0.277 C 
ATOM      8  C   UNL     1      -6.231  14.851  29.574  0.00  0.00    +0.110 C 
ATOM      9  C   UNL     1      -6.177  14.281  31.007  0.00  0.00    +0.143 C 
ATOM     10  C   UNL     1      -5.327  13.011  31.062  0.00  0.00    +0.133 C 
BRANCH  10  11
ATOM     11  N   UNL     1      -5.355  12.430  32.413  0.00  0.00    -0.308 N 
ATOM     12  H   UNL     1      -6.217  12.007  32.727  0.00  0.00    +0.149 HD
ATOM     13  C   UNL     1      -4.315  12.425  33.252  0.00  0.00    +0.210 C 
ATOM     14  C   UNL     1      -3.024  13.101  32.754  0.00  0.00    +0.109 C 
ATOM     15  O   UNL     1      -4.363  11.918  34.373  0.00  0.00    -0.276 OA
ENDBRANCH  10  11
BRANCH   7  16
ATOM     16  C   UNL     1      -8.174  13.479  28.728  0.00  0.00    +0.414 C 
ATOM     17  O   UNL     1      -8.656  12.435  28.290  0.00  0.00    -0.240 OA
ATOM     18  O   UNL     1      -8.905  14.282  29.310  0.00  0.00    -0.240 OA
ENDBRANCH   7  16
BRANCH   7  19
ATOM     19  O   UNL     1      -6.431  14.294  27.214  0.00  0.00    -0.343 OA
ATOM     20  C   UNL     1      -6.739  15.700  27.038  0.00  0.00    +0.198 C 
ENDBRANCH   7  19
BRANCH   9  21
ATOM     21  O   UNL     1      -5.624  15.256  31.893  0.00  0.00    -0.390 OA
ATOM     22  H   UNL     1      -6.253  15.971  32.015  0.00  0.00    +0.210 HD
ENDBRANCH   9  21
ENDBRANCH   4   5
BRANCH   4  23
ATOM     23  O   UNL     1      -5.466   9.817  31.098  0.00  0.00    -0.387 OA
ATOM     24  H   UNL     1      -6.423   9.783  31.163  0.00  0.00    +0.210 HD
ENDBRANCH   4  23
ENDBRANCH   1   4
BRANCH   1  25
ATOM     25  C   UNL     1      -2.872   9.670  30.592  0.00  0.00    +0.141 C 
BRANCH  25  28
ATOM     26  C   UNL     1      -2.959   7.744  29.045  0.00  0.00    +0.401 C 
ATOM     27  O   UNL     1      -4.085   7.389  29.401  0.00  0.00    -0.226 OA
ATOM     28  N   UNL     1      -2.314   8.795  29.553  0.00  0.00    -0.279 N 
ATOM     29  H   UNL     1      -1.388   9.002  29.203  0.00  0.00    +0.152 HD
BRANCH  26  30
ATOM     30  O   UNL     1      -2.283   6.996  28.031  0.00  0.00    -0.444 OA
BRANCH  30  31
ATOM     31  C   UNL     1      -2.982   7.133  26.791  0.00  0.00    +0.292 C 
BRANCH  31  33
ATOM     32  N   UNL     1      -1.591   9.153  26.451  0.00  0.00    -0.131 NA
ATOM     33  C   UNL     1      -2.755   8.473  26.217  0.00  0.00    +0.120 A 
ATOM     34  C   UNL     1      -3.566   9.236  25.409  0.00  0.00    +0.138 A 
ATOM     35  N   UNL     1      -2.862  10.391  25.218  0.00  0.00    -0.238 N 
ATOM     36  N   UNL     1      -1.661  10.320  25.824  0.00  0.00    -0.065 NA
BRANCH  35  37
ATOM     37  C   UNL     1      -3.155  11.550  24.382  0.00  0.00    +0.217 C 
BRANCH  37  38
ATOM     38  C   UNL     1      -3.905  12.657  25.109  0.00  0.00    +0.330 C 
ATOM     39  O   UNL     1      -4.515  13.573  24.580  0.00  0.00    -0.249 OA
BRANCH  38  40
ATOM     40  O   UNL     1      -3.846  12.567  26.461  0.00  0.00    -0.479 OA
ATOM     41  H   UNL     1      -4.537  13.035  26.970  0.00  0.00    +0.295 HD
ENDBRANCH  38  40
ENDBRANCH  37  38
BRANCH  37  42
ATOM     42  C   UNL     1      -3.830  11.146  23.059  0.00  0.00    +0.049 C 
BRANCH  42  43
ATOM     43  C   UNL     1      -3.077  11.574  21.793  0.00  0.00    +0.123 C 
BRANCH  43  44
ATOM     44  C   UNL     1      -3.522  12.944  21.335  0.00  0.00    +0.305 C 
ATOM     45  O   UNL     1      -4.681  13.273  21.148  0.00  0.00    -0.251 OA
BRANCH  44  46
ATOM     46  O   UNL     1      -2.484  13.784  21.124  0.00  0.00    -0.481 OA
ATOM     47  H   UNL     1      -2.469  14.564  21.711  0.00  0.00    +0.295 HD
ENDBRANCH  44  46
ENDBRANCH  43  44
ENDBRANCH  42  43
ENDBRANCH  37  42
ENDBRANCH  35  37
ENDBRANCH  31  33
ENDBRANCH  30  31
ENDBRANCH  26  30
ENDBRANCH  25  28
ENDBRANCH   1  25
TORSDOF 20
