REMARK VINA RESULT:    -5.063      4.532     12.002
REMARK INTER + INTRA:         -11.144
REMARK INTER:                  -8.662
REMARK INTRA:                  -2.482
REMARK UNBOUND:                -2.381
REMARK  Name = lig_assembled_7.pdb
REMARK  19 active torsions:
REMARK  status: ('A' for Active; 'I' for Inactive)
REMARK    1  A    between atoms: _2  and  _9
REMARK    2  A    between atoms: _4  and  _21
REMARK    3  A    between atoms: _5  and  _16
REMARK    4  A    between atoms: _6  and  _7
REMARK    5  A    between atoms: _6  and  _21
REMARK    6  A    between atoms: _10  and  _11
REMARK    7  A    between atoms: _13  and  _14
REMARK    8  A    between atoms: _17  and  _37
REMARK    9  A    between atoms: _19  and  _25
REMARK   10  A    between atoms: _20  and  _24
REMARK   11  A    between atoms: _24  and  _25
REMARK   12  A    between atoms: _27  and  _28
REMARK   13  A    between atoms: _29  and  _30
REMARK   14  A    between atoms: _31  and  _33
REMARK   15  A    between atoms: _33  and  _34
REMARK   16  A    between atoms: _33  and  _35
REMARK   17  A    between atoms: _35  and  _36
REMARK   18  A    between atoms: _35  and  _37
REMARK   19  A    between atoms: _38  and  _40
REMARK                            x       y       z     vdW  Elec       q    Type
REMARK                         _______ _______ _______ _____ _____    ______ ____
ROOT
ATOM      1  C   UNL     1      -5.794  10.833  16.606  0.00  0.00    +0.163 C 
ENDROOT
BRANCH   1   2
ATOM      2  O   UNL     1      -4.912  11.950  16.404  0.00  0.00    -0.388 OA
ATOM      3  H   UNL     1      -4.003  11.667  16.529  0.00  0.00    +0.210 HD
ENDBRANCH   1   2
BRANCH   1   4
ATOM      4  C   UNL     1      -6.439  10.920  17.985  0.00  0.00    +0.141 C 
BRANCH   4   7
ATOM      5  C   UNL     1      -4.620  10.967  19.657  0.00  0.00    +0.401 C 
ATOM      6  O   UNL     1      -4.316  12.140  19.432  0.00  0.00    -0.226 OA
ATOM      7  N   UNL     1      -5.595  10.315  19.023  0.00  0.00    -0.279 N 
ATOM      8  H   UNL     1      -5.764   9.350  19.271  0.00  0.00    +0.152 HD
BRANCH   5   9
ATOM      9  O   UNL     1      -3.894  10.239  20.651  0.00  0.00    -0.444 OA
BRANCH   9  10
ATOM     10  C   UNL     1      -3.148  11.152  21.462  0.00  0.00    +0.292 C 
BRANCH  10  12
ATOM     11  N   UNL     1      -4.237   9.921  23.299  0.00  0.00    -0.131 NA
ATOM     12  C   UNL     1      -3.523  11.001  22.879  0.00  0.00    +0.121 A 
ATOM     13  C   UNL     1      -3.262  11.811  23.967  0.00  0.00    +0.143 A 
ATOM     14  N   UNL     1      -3.885  11.202  25.036  0.00  0.00    -0.219 N 
ATOM     15  N   UNL     1      -4.427  10.035  24.603  0.00  0.00    -0.060 NA
BRANCH  14  16
ATOM     16  C   UNL     1      -3.990  11.632  26.399  0.00  0.00    +0.073 A 
ATOM     17  C   UNL     1      -3.093  11.095  27.372  0.00  0.00    -0.024 A 
ATOM     18  C   UNL     1      -3.188  11.514  28.717  0.00  0.00    +0.008 A 
ATOM     19  C   UNL     1      -4.134  12.451  29.123  0.00  0.00    -0.050 A 
ATOM     20  C   UNL     1      -4.206  12.876  30.559  0.00  0.00    +0.044 C 
ATOM     21  C   UNL     1      -5.005  12.973  28.170  0.00  0.00    +0.008 A 
ATOM     22  C   UNL     1      -1.978  10.119  27.066  0.00  0.00    +0.046 C 
ATOM     23  C   UNL     1      -4.971  12.569  26.815  0.00  0.00    -0.024 A 
ATOM     24  C   UNL     1      -6.077  13.159  25.979  0.00  0.00    +0.046 C 
ENDBRANCH  14  16
ENDBRANCH  10  12
ENDBRANCH   9  10
ENDBRANCH   5   9
ENDBRANCH   4   7
ENDBRANCH   1   4
BRANCH   1  25
ATOM     25  C   UNL     1      -5.034   9.502  16.477  0.00  0.00    +0.175 C 
BRANCH  25  26
ATOM     26  C   UNL     1      -4.080   9.495  15.274  0.00  0.00    +0.176 C 
ATOM     27  O   UNL     1      -4.756  10.147  14.163  0.00  0.00    -0.332 OA
ATOM     28  C   UNL     1      -3.953  10.328  12.950  0.00  0.00    +0.277 C 
ATOM     29  C   UNL     1      -3.366   8.974  12.483  0.00  0.00    +0.110 C 
ATOM     30  C   UNL     1      -2.664   8.228  13.638  0.00  0.00    +0.143 C 
ATOM     31  C   UNL     1      -3.588   8.099  14.849  0.00  0.00    +0.133 C 
BRANCH  31  32
ATOM     32  N   UNL     1      -2.880   7.465  15.972  0.00  0.00    -0.308 N 
ATOM     33  H   UNL     1      -2.136   7.986  16.415  0.00  0.00    +0.149 HD
ATOM     34  C   UNL     1      -3.156   6.246  16.444  0.00  0.00    +0.210 C 
ATOM     35  C   UNL     1      -4.277   5.467  15.730  0.00  0.00    +0.109 C 
ATOM     36  O   UNL     1      -2.555   5.746  17.396  0.00  0.00    -0.276 OA
ENDBRANCH  31  32
BRANCH  28  37
ATOM     37  C   UNL     1      -2.806  11.329  13.198  0.00  0.00    +0.414 C 
ATOM     38  O   UNL     1      -1.799  11.306  12.492  0.00  0.00    -0.240 OA
ATOM     39  O   UNL     1      -2.888  12.160  14.104  0.00  0.00    -0.240 OA
ENDBRANCH  28  37
BRANCH  30  40
ATOM     40  O   UNL     1      -2.273   6.926  13.203  0.00  0.00    -0.390 OA
ATOM     41  H   UNL     1      -2.213   6.339  13.960  0.00  0.00    +0.210 HD
ENDBRANCH  30  40
BRANCH  28  42
ATOM     42  O   UNL     1      -4.825  10.833  11.906  0.00  0.00    -0.343 OA
ATOM     43  C   UNL     1      -5.965  11.596  12.376  0.00  0.00    +0.198 C 
ENDBRANCH  28  42
ENDBRANCH  25  26
BRANCH  25  44
ATOM     44  O   UNL     1      -5.965   8.406  16.379  0.00  0.00    -0.387 OA
ATOM     45  H   UNL     1      -6.851   8.720  16.575  0.00  0.00    +0.210 HD
ENDBRANCH  25  44
ENDBRANCH   1  25
TORSDOF 14
