REMARK VINA RESULT:    -4.949      2.893      9.067
REMARK INTER + INTRA:         -11.611
REMARK INTER:                  -8.454
REMARK INTRA:                  -3.157
REMARK UNBOUND:                -2.756
REMARK  Name = lig_assembled_41.pdb
REMARK  18 active torsions:
REMARK  status: ('A' for Active; 'I' for Inactive)
REMARK    1  A    between atoms: _2  and  _9
REMARK    2  A    between atoms: _4  and  _21
REMARK    3  A    between atoms: _6  and  _7
REMARK    4  A    between atoms: _6  and  _21
REMARK    5  A    between atoms: _10  and  _11
REMARK    6  A    between atoms: _11  and  _12
REMARK    7  A    between atoms: _17  and  _37
REMARK    8  A    between atoms: _19  and  _25
REMARK    9  A    between atoms: _20  and  _24
REMARK   10  A    between atoms: _24  and  _25
REMARK   11  A    between atoms: _27  and  _28
REMARK   12  A    between atoms: _29  and  _30
REMARK   13  A    between atoms: _31  and  _33
REMARK   14  A    between atoms: _33  and  _34
REMARK   15  A    between atoms: _33  and  _35
REMARK   16  A    between atoms: _35  and  _36
REMARK   17  A    between atoms: _35  and  _37
REMARK   18  A    between atoms: _38  and  _40
REMARK                            x       y       z     vdW  Elec       q    Type
REMARK                         _______ _______ _______ _____ _____    ______ ____
ROOT
ATOM      1  C   UNL     1      -2.952  11.743  24.744  0.00  0.00    +0.163 C 
ENDROOT
BRANCH   1   2
ATOM      2  O   UNL     1      -3.122  11.577  26.161  0.00  0.00    -0.388 OA
ATOM      3  H   UNL     1      -2.300  11.790  26.610  0.00  0.00    +0.210 HD
ENDBRANCH   1   2
BRANCH   1   4
ATOM      4  C   UNL     1      -3.280  13.177  24.343  0.00  0.00    +0.141 C 
BRANCH   4   7
ATOM      5  C   UNL     1      -4.622  14.259  22.573  0.00  0.00    +0.401 C 
ATOM      6  O   UNL     1      -3.906  15.262  22.512  0.00  0.00    -0.226 OA
ATOM      7  N   UNL     1      -4.407  13.239  23.404  0.00  0.00    -0.279 N 
ATOM      8  H   UNL     1      -5.055  12.464  23.386  0.00  0.00    +0.152 HD
BRANCH   5   9
ATOM      9  O   UNL     1      -5.760  14.165  21.712  0.00  0.00    -0.444 OA
BRANCH   9  10
ATOM     10  C   UNL     1      -6.109  12.790  21.530  0.00  0.00    +0.292 C 
BRANCH  10  12
ATOM     11  N   UNL     1      -7.095  12.311  19.321  0.00  0.00    -0.131 NA
ATOM     12  C   UNL     1      -5.990  12.413  20.110  0.00  0.00    +0.121 A 
ATOM     13  C   UNL     1      -4.871  12.137  19.354  0.00  0.00    +0.143 A 
ATOM     14  N   UNL     1      -5.354  11.762  18.121  0.00  0.00    -0.219 N 
ATOM     15  N   UNL     1      -6.700  11.969  18.104  0.00  0.00    -0.060 NA
BRANCH  14  16
ATOM     16  C   UNL     1      -4.673  11.339  16.944  0.00  0.00    +0.077 A 
ATOM     17  C   UNL     1      -4.501   9.994  16.554  0.00  0.00    +0.043 A 
ATOM     18  C   UNL     1      -3.759   9.715  15.387  0.00  0.00    +0.013 A 
ATOM     19  C   UNL     1      -3.192  10.740  14.625  0.00  0.00    +0.001 A 
ATOM     20  C   UNL     1      -3.382  12.063  14.996  0.00  0.00    +0.002 A 
ATOM     21  C   UNL     1      -4.124  12.361  16.137  0.00  0.00    +0.028 A 
BRANCH  17  22
ATOM     22  C   UNL     1      -5.229   8.846  17.177  0.00  0.00    +0.162 C 
ATOM     23  O   UNL     1      -4.702   8.228  18.099  0.00  0.00    -0.292 OA
ATOM     24  C   UNL     1      -6.599   8.453  16.678  0.00  0.00    +0.091 C 
ENDBRANCH  17  22
ENDBRANCH  14  16
ENDBRANCH  10  12
ENDBRANCH   9  10
ENDBRANCH   5   9
ENDBRANCH   4   7
ENDBRANCH   1   4
BRANCH   1  25
ATOM     25  C   UNL     1      -3.855  10.771  23.964  0.00  0.00    +0.175 C 
BRANCH  25  26
ATOM     26  C   UNL     1      -4.219   9.530  24.792  0.00  0.00    +0.176 C 
ATOM     27  O   UNL     1      -2.981   8.906  25.230  0.00  0.00    -0.332 OA
ATOM     28  C   UNL     1      -3.133   7.757  26.128  0.00  0.00    +0.277 C 
ATOM     29  C   UNL     1      -4.059   6.692  25.490  0.00  0.00    +0.110 C 
ATOM     30  C   UNL     1      -5.376   7.314  24.980  0.00  0.00    +0.143 C 
ATOM     31  C   UNL     1      -5.100   8.502  24.058  0.00  0.00    +0.133 C 
BRANCH  31  32
ATOM     32  N   UNL     1      -6.361   9.140  23.648  0.00  0.00    -0.308 N 
ATOM     33  H   UNL     1      -6.949   9.530  24.371  0.00  0.00    +0.149 HD
ATOM     34  C   UNL     1      -6.780   9.237  22.383  0.00  0.00    +0.210 C 
ATOM     35  C   UNL     1      -5.873   8.609  21.307  0.00  0.00    +0.109 C 
ATOM     36  O   UNL     1      -7.834   9.789  22.068  0.00  0.00    -0.276 OA
ENDBRANCH  31  32
BRANCH  28  37
ATOM     37  C   UNL     1      -3.714   8.198  27.487  0.00  0.00    +0.414 C 
ATOM     38  O   UNL     1      -3.413   9.291  27.965  0.00  0.00    -0.240 OA
ATOM     39  O   UNL     1      -4.483   7.461  28.106  0.00  0.00    -0.240 OA
ENDBRANCH  28  37
BRANCH  30  40
ATOM     40  O   UNL     1      -6.129   6.331  24.269  0.00  0.00    -0.390 OA
ATOM     41  H   UNL     1      -6.614   6.753  23.555  0.00  0.00    +0.210 HD
ENDBRANCH  30  40
BRANCH  28  42
ATOM     42  O   UNL     1      -1.824   7.165  26.325  0.00  0.00    -0.343 OA
ATOM     43  C   UNL     1      -1.817   5.721  26.454  0.00  0.00    +0.198 C 
ENDBRANCH  28  42
ENDBRANCH  25  26
BRANCH  25  44
ATOM     44  O   UNL     1      -3.215  10.378  22.734  0.00  0.00    -0.387 OA
ATOM     45  H   UNL     1      -3.561   9.528  22.451  0.00  0.00    +0.210 HD
ENDBRANCH  25  44
ENDBRANCH   1  25
TORSDOF 15
