REMARK VINA RESULT:    -4.670      1.868      2.739
REMARK INTER + INTRA:         -12.289
REMARK INTER:                  -7.892
REMARK INTRA:                  -4.397
REMARK UNBOUND:                -3.114
REMARK  Name = lig_assembled_10.pdb
REMARK  21 active torsions:
REMARK  status: ('A' for Active; 'I' for Inactive)
REMARK    1  A    between atoms: _2  and  _9
REMARK    2  A    between atoms: _4  and  _20
REMARK    3  A    between atoms: _5  and  _9
REMARK    4  A    between atoms: _5  and  _12
REMARK    5  A    between atoms: _6  and  _7
REMARK    6  A    between atoms: _6  and  _20
REMARK    7  A    between atoms: _9  and  _10
REMARK    8  A    between atoms: _10  and  _11
REMARK    9  A    between atoms: _11  and  _14
REMARK   10  A    between atoms: _16  and  _36
REMARK   11  A    between atoms: _18  and  _24
REMARK   12  A    between atoms: _19  and  _23
REMARK   13  A    between atoms: _23  and  _24
REMARK   14  A    between atoms: _26  and  _27
REMARK   15  A    between atoms: _28  and  _29
REMARK   16  A    between atoms: _30  and  _32
REMARK   17  A    between atoms: _32  and  _33
REMARK   18  A    between atoms: _32  and  _34
REMARK   19  A    between atoms: _34  and  _35
REMARK   20  A    between atoms: _34  and  _36
REMARK   21  A    between atoms: _37  and  _39
REMARK                            x       y       z     vdW  Elec       q    Type
REMARK                         _______ _______ _______ _____ _____    ______ ____
ROOT
ATOM      1  C   UNL     1      -5.315  11.708  27.397  0.00  0.00    +0.163 C 
ENDROOT
BRANCH   1   2
ATOM      2  O   UNL     1      -4.378  10.798  26.798  0.00  0.00    -0.388 OA
ATOM      3  H   UNL     1      -3.542  10.843  27.269  0.00  0.00    +0.210 HD
ENDBRANCH   1   2
BRANCH   1   4
ATOM      4  C   UNL     1      -4.759  12.285  28.710  0.00  0.00    +0.175 C 
BRANCH   4   5
ATOM      5  C   UNL     1      -3.823  11.298  29.425  0.00  0.00    +0.176 C 
ATOM      6  O   UNL     1      -4.426   9.977  29.349  0.00  0.00    -0.332 OA
ATOM      7  C   UNL     1      -3.617   8.880  29.891  0.00  0.00    +0.277 C 
ATOM      8  C   UNL     1      -3.202   9.184  31.351  0.00  0.00    +0.110 C 
ATOM      9  C   UNL     1      -2.585  10.592  31.487  0.00  0.00    +0.143 C 
ATOM     10  C   UNL     1      -3.507  11.655  30.889  0.00  0.00    +0.133 C 
BRANCH  10  11
ATOM     11  N   UNL     1      -2.871  12.980  30.946  0.00  0.00    -0.308 N 
ATOM     12  H   UNL     1      -2.063  13.141  30.361  0.00  0.00    +0.149 HD
ATOM     13  C   UNL     1      -3.291  13.985  31.719  0.00  0.00    +0.210 C 
ATOM     14  C   UNL     1      -4.509  13.700  32.618  0.00  0.00    +0.109 C 
ATOM     15  O   UNL     1      -2.747  15.089  31.735  0.00  0.00    -0.276 OA
ENDBRANCH  10  11
BRANCH   7  16
ATOM     16  C   UNL     1      -2.355   8.655  29.032  0.00  0.00    +0.414 C 
ATOM     17  O   UNL     1      -1.527   7.805  29.357  0.00  0.00    -0.240 OA
ATOM     18  O   UNL     1      -2.165   9.323  28.015  0.00  0.00    -0.240 OA
ENDBRANCH   7  16
BRANCH   7  19
ATOM     19  O   UNL     1      -4.431   7.679  29.887  0.00  0.00    -0.343 OA
ATOM     20  C   UNL     1      -5.782   7.853  30.383  0.00  0.00    +0.198 C 
ENDBRANCH   7  19
BRANCH   9  21
ATOM     21  O   UNL     1      -2.357  10.887  32.865  0.00  0.00    -0.390 OA
ATOM     22  H   UNL     1      -3.190  11.116  33.286  0.00  0.00    +0.210 HD
ENDBRANCH   9  21
ENDBRANCH   4   5
BRANCH   4  23
ATOM     23  O   UNL     1      -5.842  12.663  29.584  0.00  0.00    -0.387 OA
ATOM     24  H   UNL     1      -6.607  12.113  29.402  0.00  0.00    +0.210 HD
ENDBRANCH   4  23
ENDBRANCH   1   4
BRANCH   1  25
ATOM     25  C   UNL     1      -5.626  12.847  26.432  0.00  0.00    +0.141 C 
BRANCH  25  28
ATOM     26  C   UNL     1      -5.255  13.185  24.012  0.00  0.00    +0.401 C 
ATOM     27  O   UNL     1      -4.926  14.367  24.132  0.00  0.00    -0.226 OA
ATOM     28  N   UNL     1      -5.604  12.401  25.033  0.00  0.00    -0.279 N 
ATOM     29  H   UNL     1      -5.868  11.447  24.833  0.00  0.00    +0.152 HD
BRANCH  26  30
ATOM     30  O   UNL     1      -5.276  12.598  22.708  0.00  0.00    -0.444 OA
BRANCH  30  31
ATOM     31  C   UNL     1      -4.020  11.965  22.450  0.00  0.00    +0.292 C 
BRANCH  31  33
ATOM     32  N   UNL     1      -3.003  10.550  24.210  0.00  0.00    -0.131 NA
ATOM     33  C   UNL     1      -3.920  10.702  23.205  0.00  0.00    +0.120 A 
ATOM     34  C   UNL     1      -4.651   9.542  23.083  0.00  0.00    +0.138 A 
ATOM     35  N   UNL     1      -4.165   8.735  24.065  0.00  0.00    -0.237 N 
ATOM     36  N   UNL     1      -3.155   9.339  24.725  0.00  0.00    -0.065 NA
BRANCH  35  37
ATOM     37  C   UNL     1      -4.555   7.398  24.481  0.00  0.00    +0.227 C 
BRANCH  37  38
ATOM     38  C   UNL     1      -5.252   7.335  25.823  0.00  0.00    +0.330 C 
ATOM     39  O   UNL     1      -6.191   6.574  26.027  0.00  0.00    -0.249 OA
BRANCH  38  40
ATOM     40  O   UNL     1      -4.772   8.120  26.810  0.00  0.00    -0.479 OA
ATOM     41  H   UNL     1      -4.994   7.854  27.739  0.00  0.00    +0.295 HD
ENDBRANCH  38  40
ENDBRANCH  37  38
BRANCH  37  42
ATOM     42  C   UNL     1      -3.445   6.347  24.351  0.00  0.00    +0.158 C 
BRANCH  42  43
ATOM     43  C   UNL     1      -2.709   6.137  25.645  0.00  0.00    +0.307 C 
ATOM     44  O   UNL     1      -2.852   5.150  26.355  0.00  0.00    -0.251 OA
BRANCH  43  45
ATOM     45  O   UNL     1      -1.810   7.102  25.917  0.00  0.00    -0.481 OA
ATOM     46  H   UNL     1      -1.730   7.800  25.239  0.00  0.00    +0.295 HD
ENDBRANCH  43  45
ENDBRANCH  42  43
ENDBRANCH  37  42
ENDBRANCH  35  37
ENDBRANCH  31  33
ENDBRANCH  30  31
ENDBRANCH  26  30
ENDBRANCH  25  28
ENDBRANCH   1  25
TORSDOF 19
