REMARK VINA RESULT:    -5.019      2.512      3.772
REMARK INTER + INTRA:         -10.857
REMARK INTER:                  -8.167
REMARK INTRA:                  -2.690
REMARK UNBOUND:                -2.170
REMARK  Name = lig_assembled_87.pdb
REMARK  17 active torsions:
REMARK  status: ('A' for Active; 'I' for Inactive)
REMARK    1  A    between atoms: _2  and  _10
REMARK    2  A    between atoms: _3  and  _13
REMARK    3  A    between atoms: _5  and  _21
REMARK    4  A    between atoms: _7  and  _8
REMARK    5  A    between atoms: _7  and  _21
REMARK    6  A    between atoms: _17  and  _37
REMARK    7  A    between atoms: _19  and  _25
REMARK    8  A    between atoms: _20  and  _24
REMARK    9  A    between atoms: _24  and  _25
REMARK   10  A    between atoms: _27  and  _28
REMARK   11  A    between atoms: _29  and  _30
REMARK   12  A    between atoms: _31  and  _33
REMARK   13  A    between atoms: _33  and  _34
REMARK   14  A    between atoms: _33  and  _35
REMARK   15  A    between atoms: _35  and  _36
REMARK   16  A    between atoms: _35  and  _37
REMARK   17  A    between atoms: _38  and  _40
REMARK                            x       y       z     vdW  Elec       q    Type
REMARK                         _______ _______ _______ _____ _____    ______ ____
ROOT
ATOM      1  C   UNL     1      -5.669   8.332  25.161  0.00  0.00    +0.163 C 
ENDROOT
BRANCH   1   2
ATOM      2  O   UNL     1      -6.176   8.963  26.349  0.00  0.00    -0.388 OA
ATOM      3  H   UNL     1      -6.110   9.917  26.258  0.00  0.00    +0.210 HD
ENDBRANCH   1   2
BRANCH   1   4
ATOM      4  C   UNL     1      -4.176   8.061  25.311  0.00  0.00    +0.141 C 
BRANCH   4   7
ATOM      5  C   UNL     1      -2.494   8.010  27.121  0.00  0.00    +0.401 C 
ATOM      6  O   UNL     1      -1.661   7.390  26.458  0.00  0.00    -0.226 OA
ATOM      7  N   UNL     1      -3.698   8.360  26.667  0.00  0.00    -0.279 N 
ATOM      8  H   UNL     1      -4.317   8.860  27.290  0.00  0.00    +0.152 HD
BRANCH   5   9
ATOM      9  O   UNL     1      -2.175   8.385  28.464  0.00  0.00    -0.444 OA
BRANCH   9  10
ATOM     10  C   UNL     1      -3.377   8.487  29.231  0.00  0.00    +0.292 C 
BRANCH  10  12
ATOM     11  N   UNL     1      -2.886   9.355  31.491  0.00  0.00    -0.131 NA
ATOM     12  C   UNL     1      -3.267   9.592  30.200  0.00  0.00    +0.120 A 
ATOM     13  C   UNL     1      -3.480  10.942  30.034  0.00  0.00    +0.137 A 
ATOM     14  N   UNL     1      -3.093  11.495  31.225  0.00  0.00    -0.248 N 
ATOM     15  N   UNL     1      -2.852  10.516  32.122  0.00  0.00    -0.065 NA
BRANCH  14  16
ATOM     16  C   UNL     1      -2.930  12.903  31.632  0.00  0.00    +0.112 C 
ATOM     17  C   UNL     1      -3.537  13.256  33.018  0.00  0.00    +0.045 C 
ATOM     18  C   UNL     1      -4.626  14.342  33.011  0.00  0.00    +0.059 C 
ATOM     19  C   UNL     1      -4.031  15.753  32.903  0.00  0.00    +0.020 C 
ATOM     20  C   UNL     1      -4.096  16.086  31.413  0.00  0.00    +0.020 C 
ATOM     21  C   UNL     1      -4.553  14.779  30.763  0.00  0.00    +0.059 C 
ATOM     22  N   UNL     1      -5.450  14.303  31.811  0.00  0.00    -0.299 NA
ATOM     23  C   UNL     1      -6.201  13.093  31.553  0.00  0.00    +0.105 C 
ATOM     24  C   UNL     1      -3.354  13.870  30.485  0.00  0.00    +0.045 C 
ENDBRANCH  14  16
ENDBRANCH  10  12
ENDBRANCH   9  10
ENDBRANCH   5   9
ENDBRANCH   4   7
ENDBRANCH   1   4
BRANCH   1  25
ATOM     25  C   UNL     1      -5.909   9.215  23.924  0.00  0.00    +0.175 C 
BRANCH  25  26
ATOM     26  C   UNL     1      -4.951  10.414  23.875  0.00  0.00    +0.176 C 
ATOM     27  O   UNL     1      -5.332  11.334  24.935  0.00  0.00    -0.332 OA
ATOM     28  C   UNL     1      -4.457  12.497  25.110  0.00  0.00    +0.277 C 
ATOM     29  C   UNL     1      -4.309  13.268  23.775  0.00  0.00    +0.110 C 
ATOM     30  C   UNL     1      -3.936  12.326  22.612  0.00  0.00    +0.143 C 
ATOM     31  C   UNL     1      -4.909  11.151  22.523  0.00  0.00    +0.133 C 
BRANCH  31  32
ATOM     32  N   UNL     1      -4.492  10.215  21.467  0.00  0.00    -0.308 N 
ATOM     33  H   UNL     1      -3.595   9.762  21.565  0.00  0.00    +0.149 HD
ATOM     34  C   UNL     1      -5.223   9.925  20.387  0.00  0.00    +0.210 C 
ATOM     35  C   UNL     1      -6.575  10.652  20.253  0.00  0.00    +0.109 C 
ATOM     36  O   UNL     1      -4.855   9.126  19.525  0.00  0.00    -0.276 OA
ENDBRANCH  31  32
BRANCH  28  37
ATOM     37  C   UNL     1      -3.064  12.063  25.612  0.00  0.00    +0.414 C 
ATOM     38  O   UNL     1      -2.048  12.483  25.060  0.00  0.00    -0.240 OA
ATOM     39  O   UNL     1      -2.957  11.294  26.567  0.00  0.00    -0.240 OA
ENDBRANCH  28  37
BRANCH  30  40
ATOM     40  O   UNL     1      -3.958  13.050  21.380  0.00  0.00    -0.390 OA
ATOM     41  H   UNL     1      -3.739  13.970  21.544  0.00  0.00    +0.210 HD
ENDBRANCH  30  40
BRANCH  28  42
ATOM     42  O   UNL     1      -5.073  13.380  26.083  0.00  0.00    -0.343 OA
ATOM     43  C   UNL     1      -6.179  12.802  26.821  0.00  0.00    +0.198 C 
ENDBRANCH  28  42
ENDBRANCH  25  26
BRANCH  25  44
ATOM     44  O   UNL     1      -7.277   9.670  23.897  0.00  0.00    -0.387 OA
ATOM     45  H   UNL     1      -7.767   9.173  23.237  0.00  0.00    +0.210 HD
ENDBRANCH  25  44
ENDBRANCH   1  25
TORSDOF 14
