REMARK VINA RESULT:    -4.291      6.335     10.932
REMARK INTER + INTRA:         -10.978
REMARK INTER:                  -8.435
REMARK INTRA:                  -2.543
REMARK UNBOUND:                -2.799
REMARK  Name = lig_assembled_55.pdb
REMARK  20 active torsions:
REMARK  status: ('A' for Active; 'I' for Inactive)
REMARK    1  A    between atoms: _2  and  _10
REMARK    2  A    between atoms: _3  and  _11
REMARK    3  A    between atoms: _3  and  _38
REMARK    4  A    between atoms: _5  and  _18
REMARK    5  A    between atoms: _6  and  _38
REMARK    6  A    between atoms: _7  and  _8
REMARK    7  A    between atoms: _7  and  _18
REMARK    8  A    between atoms: _10  and  _11
REMARK    9  A    between atoms: _14  and  _34
REMARK   10  A    between atoms: _16  and  _22
REMARK   11  A    between atoms: _17  and  _21
REMARK   12  A    between atoms: _21  and  _22
REMARK   13  A    between atoms: _24  and  _25
REMARK   14  A    between atoms: _26  and  _27
REMARK   15  A    between atoms: _28  and  _30
REMARK   16  A    between atoms: _30  and  _31
REMARK   17  A    between atoms: _30  and  _32
REMARK   18  A    between atoms: _32  and  _33
REMARK   19  A    between atoms: _32  and  _34
REMARK   20  A    between atoms: _35  and  _37
REMARK                            x       y       z     vdW  Elec       q    Type
REMARK                         _______ _______ _______ _____ _____    ______ ____
ROOT
ATOM      1  C   UNL     1      -6.697  11.027  16.572  0.00  0.00    +0.163 C 
ENDROOT
BRANCH   1   2
ATOM      2  O   UNL     1      -5.783  12.134  16.515  0.00  0.00    -0.388 OA
ATOM      3  H   UNL     1      -5.128  11.974  15.831  0.00  0.00    +0.210 HD
ENDBRANCH   1   2
BRANCH   1   4
ATOM      4  C   UNL     1      -6.119   9.799  15.849  0.00  0.00    +0.175 C 
BRANCH   4   5
ATOM      5  C   UNL     1      -4.835  10.134  15.076  0.00  0.00    +0.176 C 
ATOM      6  O   UNL     1      -5.218  10.797  13.839  0.00  0.00    -0.332 OA
ATOM      7  C   UNL     1      -4.111  11.288  13.014  0.00  0.00    +0.277 C 
ATOM      8  C   UNL     1      -3.115  10.143  12.707  0.00  0.00    +0.110 C 
ATOM      9  C   UNL     1      -2.703   9.389  13.989  0.00  0.00    +0.143 C 
ATOM     10  C   UNL     1      -3.932   8.925  14.772  0.00  0.00    +0.133 C 
BRANCH  10  11
ATOM     11  N   UNL     1      -3.527   8.284  16.033  0.00  0.00    -0.308 N 
ATOM     12  H   UNL     1      -3.101   8.865  16.741  0.00  0.00    +0.149 HD
ATOM     13  C   UNL     1      -3.688   6.986  16.303  0.00  0.00    +0.210 C 
ATOM     14  C   UNL     1      -4.317   6.123  15.193  0.00  0.00    +0.109 C 
ATOM     15  O   UNL     1      -3.353   6.479  17.374  0.00  0.00    -0.276 OA
ENDBRANCH  10  11
BRANCH   7  16
ATOM     16  C   UNL     1      -3.370  12.441  13.723  0.00  0.00    +0.414 C 
ATOM     17  O   UNL     1      -2.179  12.647  13.493  0.00  0.00    -0.240 OA
ATOM     18  O   UNL     1      -3.963  13.164  14.525  0.00  0.00    -0.240 OA
ENDBRANCH   7  16
BRANCH   7  19
ATOM     19  O   UNL     1      -4.663  11.763  11.758  0.00  0.00    -0.343 OA
ATOM     20  C   UNL     1      -4.766  10.759  10.717  0.00  0.00    +0.198 C 
ENDBRANCH   7  19
BRANCH   9  21
ATOM     21  O   UNL     1      -1.908   8.253  13.645  0.00  0.00    -0.390 OA
ATOM     22  H   UNL     1      -2.026   8.049  12.714  0.00  0.00    +0.210 HD
ENDBRANCH   9  21
ENDBRANCH   4   5
BRANCH   4  23
ATOM     23  O   UNL     1      -7.104   9.239  14.957  0.00  0.00    -0.387 OA
ATOM     24  H   UNL     1      -7.309   8.341  15.230  0.00  0.00    +0.210 HD
ENDBRANCH   4  23
ENDBRANCH   1   4
BRANCH   1  25
ATOM     25  C   UNL     1      -6.994  10.670  18.025  0.00  0.00    +0.141 C 
BRANCH  25  28
ATOM     26  C   UNL     1      -4.951  10.040  19.265  0.00  0.00    +0.401 C 
ATOM     27  O   UNL     1      -4.988   8.859  18.912  0.00  0.00    -0.226 OA
ATOM     28  N   UNL     1      -5.852  10.955  18.903  0.00  0.00    -0.279 N 
ATOM     29  H   UNL     1      -5.742  11.897  19.252  0.00  0.00    +0.152 HD
BRANCH  26  30
ATOM     30  O   UNL     1      -3.890  10.477  20.118  0.00  0.00    -0.444 OA
BRANCH  30  31
ATOM     31  C   UNL     1      -4.353  11.549  20.945  0.00  0.00    +0.292 C 
BRANCH  31  33
ATOM     32  N   UNL     1      -3.311  10.230  22.759  0.00  0.00    -0.131 NA
ATOM     33  C   UNL     1      -3.793  11.429  22.304  0.00  0.00    +0.120 A 
ATOM     34  C   UNL     1      -3.651  12.377  23.294  0.00  0.00    +0.137 A 
ATOM     35  N   UNL     1      -3.096  11.689  24.331  0.00  0.00    -0.250 N 
ATOM     36  N   UNL     1      -2.891  10.399  24.004  0.00  0.00    -0.065 NA
BRANCH  35  37
ATOM     37  C   UNL     1      -2.712  12.188  25.633  0.00  0.00    +0.162 C 
BRANCH  37  38
ATOM     38  C   UNL     1      -2.950  11.191  26.773  0.00  0.00    +0.129 C 
BRANCH  38  39
ATOM     39  N   UNL     1      -1.877  10.162  26.902  0.00  0.00    -0.193 NA
ATOM     40  H   UNL     1      -1.112  10.512  27.492  0.00  0.00    +0.148 HD
BRANCH  39  41
ATOM     41  S   UNL     1      -2.380   8.612  27.331  0.00  0.00    +0.027 S 
ATOM     42  O   UNL     1      -1.920   7.722  26.288  0.00  0.00    -0.158 OA
ATOM     43  O   UNL     1      -2.016   8.401  28.714  0.00  0.00    -0.158 OA
ATOM     44  C   UNL     1      -4.147   8.761  27.199  0.00  0.00    +0.214 C 
ENDBRANCH  39  41
ENDBRANCH  38  39
ENDBRANCH  37  38
ENDBRANCH  35  37
ENDBRANCH  31  33
ENDBRANCH  30  31
ENDBRANCH  26  30
ENDBRANCH  25  28
ENDBRANCH   1  25
TORSDOF 17
