REMARK VINA RESULT:    -5.183      2.226      8.331
REMARK INTER + INTRA:         -14.124
REMARK INTER:                  -8.867
REMARK INTRA:                  -5.256
REMARK UNBOUND:                -3.487
REMARK  Name = lig_assembled_90.pdb
REMARK  22 active torsions:
REMARK  status: ('A' for Active; 'I' for Inactive)
REMARK    1  A    between atoms: _2  and  _13
REMARK    2  A    between atoms: _3  and  _15
REMARK    3  A    between atoms: _4  and  _17
REMARK    4  A    between atoms: _8  and  _28
REMARK    5  A    between atoms: _10  and  _11
REMARK    6  A    between atoms: _10  and  _28
REMARK    7  A    between atoms: _13  and  _14
REMARK    8  A    between atoms: _15  and  _16
REMARK    9  A    between atoms: _16  and  _17
REMARK   10  A    between atoms: _16  and  _22
REMARK   11  A    between atoms: _24  and  _44
REMARK   12  A    between atoms: _26  and  _32
REMARK   13  A    between atoms: _27  and  _31
REMARK   14  A    between atoms: _31  and  _32
REMARK   15  A    between atoms: _34  and  _35
REMARK   16  A    between atoms: _36  and  _37
REMARK   17  A    between atoms: _38  and  _40
REMARK   18  A    between atoms: _40  and  _41
REMARK   19  A    between atoms: _40  and  _42
REMARK   20  A    between atoms: _42  and  _43
REMARK   21  A    between atoms: _42  and  _44
REMARK   22  A    between atoms: _45  and  _47
REMARK                            x       y       z     vdW  Elec       q    Type
REMARK                         _______ _______ _______ _____ _____    ______ ____
ROOT
ATOM      1  C   UNL     1      -2.015  10.101  26.459  0.00  0.00    +0.401 C 
ATOM      2  O   UNL     1      -0.957   9.777  27.004  0.00  0.00    -0.226 OA
ATOM      3  N   UNL     1      -3.221   9.737  26.896  0.00  0.00    -0.279 N 
ATOM      4  H   UNL     1      -4.031  10.061  26.386  0.00  0.00    +0.152 HD
ENDROOT
BRANCH   3   5
ATOM      5  C   UNL     1      -3.439   8.892  28.077  0.00  0.00    +0.141 C 
BRANCH   5   6
ATOM      6  C   UNL     1      -3.655   9.722  29.338  0.00  0.00    +0.163 C 
BRANCH   6   7
ATOM      7  O   UNL     1      -2.388  10.060  29.927  0.00  0.00    -0.388 OA
ATOM      8  H   UNL     1      -2.483  10.855  30.457  0.00  0.00    +0.210 HD
ENDBRANCH   6   7
BRANCH   6   9
ATOM      9  C   UNL     1      -4.454  10.990  28.988  0.00  0.00    +0.175 C 
BRANCH   9  10
ATOM     10  C   UNL     1      -4.392  12.039  30.108  0.00  0.00    +0.176 C 
ATOM     11  O   UNL     1      -4.419  11.336  31.381  0.00  0.00    -0.332 OA
ATOM     12  C   UNL     1      -4.261  12.176  32.572  0.00  0.00    +0.277 C 
ATOM     13  C   UNL     1      -5.315  13.310  32.578  0.00  0.00    +0.110 C 
ATOM     14  C   UNL     1      -5.346  14.066  31.233  0.00  0.00    +0.143 C 
ATOM     15  C   UNL     1      -5.511  13.096  30.063  0.00  0.00    +0.133 C 
BRANCH  15  16
ATOM     16  N   UNL     1      -5.452  13.819  28.783  0.00  0.00    -0.308 N 
ATOM     17  H   UNL     1      -4.561  14.203  28.498  0.00  0.00    +0.149 HD
ATOM     18  C   UNL     1      -6.498  14.002  27.972  0.00  0.00    +0.210 C 
ATOM     19  C   UNL     1      -7.846  13.428  28.447  0.00  0.00    +0.109 C 
ATOM     20  O   UNL     1      -6.415  14.599  26.898  0.00  0.00    -0.276 OA
ENDBRANCH  15  16
BRANCH  12  21
ATOM     21  C   UNL     1      -2.845  12.787  32.627  0.00  0.00    +0.414 C 
ATOM     22  O   UNL     1      -2.673  13.913  33.094  0.00  0.00    -0.240 OA
ATOM     23  O   UNL     1      -1.876  12.156  32.204  0.00  0.00    -0.240 OA
ENDBRANCH  12  21
BRANCH  14  24
ATOM     24  O   UNL     1      -6.429  14.998  31.229  0.00  0.00    -0.390 OA
ATOM     25  H   UNL     1      -7.097  14.715  31.857  0.00  0.00    +0.210 HD
ENDBRANCH  14  24
BRANCH  12  26
ATOM     26  O   UNL     1      -4.478  11.343  33.741  0.00  0.00    -0.343 OA
ATOM     27  C   UNL     1      -4.323   9.920  33.515  0.00  0.00    +0.198 C 
ENDBRANCH  12  26
ENDBRANCH   9  10
BRANCH   9  28
ATOM     28  O   UNL     1      -5.825  10.649  28.702  0.00  0.00    -0.387 OA
ATOM     29  H   UNL     1      -5.944   9.700  28.787  0.00  0.00    +0.210 HD
ENDBRANCH   9  28
ENDBRANCH   6   9
ENDBRANCH   5   6
ENDBRANCH   3   5
BRANCH   1  30
ATOM     30  O   UNL     1      -1.970  10.920  25.287  0.00  0.00    -0.444 OA
BRANCH  30  31
ATOM     31  C   UNL     1      -2.771  12.087  25.489  0.00  0.00    +0.292 C 
BRANCH  31  33
ATOM     32  N   UNL     1      -2.832  12.198  23.012  0.00  0.00    -0.131 NA
ATOM     33  C   UNL     1      -3.400  12.505  24.221  0.00  0.00    +0.120 A 
ATOM     34  C   UNL     1      -4.560  13.215  24.004  0.00  0.00    +0.137 A 
ATOM     35  N   UNL     1      -4.653  13.288  22.646  0.00  0.00    -0.242 N 
ATOM     36  N   UNL     1      -3.603  12.693  22.052  0.00  0.00    -0.065 NA
BRANCH  35  37
ATOM     37  C   UNL     1      -5.636  13.987  21.854  0.00  0.00    +0.240 C 
BRANCH  37  38
ATOM     38  C   UNL     1      -6.412  13.035  20.974  0.00  0.00    +0.235 C 
ATOM     39  O   UNL     1      -7.193  13.422  20.106  0.00  0.00    -0.274 OA
ATOM     40  N   UNL     1      -6.139  11.694  21.171  0.00  0.00    -0.311 N 
ATOM     41  H   UNL     1      -5.717  11.408  22.051  0.00  0.00    +0.149 HD
BRANCH  40  42
ATOM     42  C   UNL     1      -6.883  10.675  20.445  0.00  0.00    +0.137 C 
BRANCH  42  43
ATOM     43  C   UNL     1      -6.233   9.292  20.605  0.00  0.00    +0.151 C 
BRANCH  43  44
ATOM     44  O   UNL     1      -4.814   9.464  20.716  0.00  0.00    -0.388 OA
ATOM     45  H   UNL     1      -4.631  10.329  21.135  0.00  0.00    +0.210 HD
ENDBRANCH  43  44
BRANCH  43  46
ATOM     46  C   UNL     1      -6.799   8.536  21.813  0.00  0.00    +0.162 C 
BRANCH  46  47
ATOM     47  N   UNL     1      -5.775   8.216  22.799  0.00  0.00    -0.269 N 
ATOM     48  C   UNL     1      -4.913   7.149  22.667  0.00  0.00    +0.113 A 
ATOM     49  C   UNL     1      -4.138   7.152  23.801  0.00  0.00    +0.137 A 
ATOM     50  N   UNL     1      -4.498   8.184  24.630  0.00  0.00    -0.172 NA
ATOM     51  C   UNL     1      -5.476   8.814  23.998  0.00  0.00    +0.450 A 
ATOM     52  N   UNL     1      -6.123   9.980  24.548  0.00  0.00    +0.120 N 
ATOM     53  O   UNL     1      -6.952  10.567  23.839  0.00  0.00    +0.045 OA
ATOM     54  O   UNL     1      -5.815  10.310  25.701  0.00  0.00    -0.573 OA
ENDBRANCH  46  47
ENDBRANCH  43  46
ENDBRANCH  42  43
ENDBRANCH  40  42
ENDBRANCH  37  38
ENDBRANCH  35  37
ENDBRANCH  31  33
ENDBRANCH  30  31
ENDBRANCH   1  30
TORSDOF 20
