REMARK VINA RESULT:    -4.721      3.906      9.253
REMARK INTER + INTRA:         -11.084
REMARK INTER:                  -8.590
REMARK INTRA:                  -2.494
REMARK UNBOUND:                -2.913
REMARK  Name = lig_assembled_93.pdb
REMARK  16 active torsions:
REMARK  status: ('A' for Active; 'I' for Inactive)
REMARK    1  A    between atoms: _2  and  _9
REMARK    2  A    between atoms: _4  and  _18
REMARK    3  A    between atoms: _6  and  _7
REMARK    4  A    between atoms: _6  and  _18
REMARK    5  A    between atoms: _14  and  _34
REMARK    6  A    between atoms: _16  and  _22
REMARK    7  A    between atoms: _17  and  _21
REMARK    8  A    between atoms: _21  and  _22
REMARK    9  A    between atoms: _24  and  _25
REMARK   10  A    between atoms: _26  and  _27
REMARK   11  A    between atoms: _28  and  _30
REMARK   12  A    between atoms: _30  and  _31
REMARK   13  A    between atoms: _30  and  _32
REMARK   14  A    between atoms: _32  and  _33
REMARK   15  A    between atoms: _32  and  _34
REMARK   16  A    between atoms: _35  and  _37
REMARK                            x       y       z     vdW  Elec       q    Type
REMARK                         _______ _______ _______ _____ _____    ______ ____
ROOT
ATOM      1  C   UNL     1      -3.293  11.830  25.061  0.00  0.00    +0.163 C 
ENDROOT
BRANCH   1   2
ATOM      2  O   UNL     1      -2.151  10.964  24.955  0.00  0.00    -0.388 OA
ATOM      3  H   UNL     1      -2.175  10.503  24.113  0.00  0.00    +0.210 HD
ENDBRANCH   1   2
BRANCH   1   4
ATOM      4  C   UNL     1      -3.020  13.142  24.332  0.00  0.00    +0.141 C 
BRANCH   4   7
ATOM      5  C   UNL     1      -5.040  13.792  23.066  0.00  0.00    +0.401 C 
ATOM      6  O   UNL     1      -5.636  14.225  24.056  0.00  0.00    -0.226 OA
ATOM      7  N   UNL     1      -3.817  13.263  23.105  0.00  0.00    -0.279 N 
ATOM      8  H   UNL     1      -3.415  12.926  22.241  0.00  0.00    +0.152 HD
BRANCH   5   9
ATOM      9  O   UNL     1      -5.683  13.847  21.790  0.00  0.00    -0.444 OA
BRANCH   9  10
ATOM     10  C   UNL     1      -6.481  12.674  21.607  0.00  0.00    +0.292 C 
BRANCH  10  12
ATOM     11  N   UNL     1      -4.691  11.063  21.071  0.00  0.00    -0.131 NA
ATOM     12  C   UNL     1      -5.809  11.735  20.690  0.00  0.00    +0.121 A 
ATOM     13  C   UNL     1      -6.130  11.369  19.404  0.00  0.00    +0.143 A 
ATOM     14  N   UNL     1      -5.175  10.439  19.031  0.00  0.00    -0.219 N 
ATOM     15  N   UNL     1      -4.315  10.290  20.063  0.00  0.00    -0.060 NA
BRANCH  14  16
ATOM     16  C   UNL     1      -5.074   9.720  17.798  0.00  0.00    +0.080 A 
ATOM     17  C   UNL     1      -5.415   8.346  17.811  0.00  0.00    +0.029 A 
ATOM     18  C   UNL     1      -5.332   7.557  16.661  0.00  0.00    +0.002 A 
ATOM     19  C   UNL     1      -4.908   8.115  15.467  0.00  0.00    +0.001 A 
ATOM     20  C   UNL     1      -4.572   9.465  15.423  0.00  0.00    +0.016 A 
ATOM     21  C   UNL     1      -4.652  10.279  16.573  0.00  0.00    +0.039 A 
ATOM     22  I   UNL     1      -4.083  12.280  16.185  0.00  0.00    -0.042 I 
ENDBRANCH  14  16
ENDBRANCH  10  12
ENDBRANCH   9  10
ENDBRANCH   5   9
ENDBRANCH   4   7
ENDBRANCH   1   4
BRANCH   1  23
ATOM     23  C   UNL     1      -3.629  12.120  26.533  0.00  0.00    +0.175 C 
BRANCH  23  24
ATOM     24  C   UNL     1      -3.347  10.913  27.439  0.00  0.00    +0.176 C 
ATOM     25  O   UNL     1      -3.949   9.741  26.823  0.00  0.00    -0.332 OA
ATOM     26  C   UNL     1      -3.690   8.466  27.498  0.00  0.00    +0.277 C 
ATOM     27  C   UNL     1      -4.110   8.547  28.986  0.00  0.00    +0.110 C 
ATOM     28  C   UNL     1      -3.520   9.795  29.677  0.00  0.00    +0.143 C 
ATOM     29  C   UNL     1      -3.846  11.064  28.889  0.00  0.00    +0.133 C 
BRANCH  29  30
ATOM     30  N   UNL     1      -3.206  12.235  29.509  0.00  0.00    -0.308 N 
ATOM     31  H   UNL     1      -2.196  12.269  29.522  0.00  0.00    +0.149 HD
ATOM     32  C   UNL     1      -3.872  13.256  30.055  0.00  0.00    +0.210 C 
ATOM     33  C   UNL     1      -5.410  13.162  30.041  0.00  0.00    +0.109 C 
ATOM     34  O   UNL     1      -3.309  14.231  30.554  0.00  0.00    -0.276 OA
ENDBRANCH  29  30
BRANCH  26  35
ATOM     35  C   UNL     1      -2.197   8.090  27.403  0.00  0.00    +0.414 C 
ATOM     36  O   UNL     1      -1.527   8.450  26.436  0.00  0.00    -0.240 OA
ATOM     37  O   UNL     1      -1.662   7.427  28.293  0.00  0.00    -0.240 OA
ENDBRANCH  26  35
BRANCH  28  38
ATOM     38  O   UNL     1      -4.052   9.912  30.997  0.00  0.00    -0.390 OA
ATOM     39  H   UNL     1      -4.332  10.817  31.151  0.00  0.00    +0.210 HD
ENDBRANCH  28  38
BRANCH  26  40
ATOM     40  O   UNL     1      -4.493   7.445  26.852  0.00  0.00    -0.343 OA
ATOM     41  C   UNL     1      -4.837   7.720  25.470  0.00  0.00    +0.198 C 
ENDBRANCH  26  40
ENDBRANCH  23  24
BRANCH  23  42
ATOM     42  O   UNL     1      -5.008  12.524  26.658  0.00  0.00    -0.387 OA
ATOM     43  H   UNL     1      -5.579  11.789  26.422  0.00  0.00    +0.210 HD
ENDBRANCH  23  42
ENDBRANCH   1  23
TORSDOF 14
