REMARK VINA RESULT:    -5.368      2.811     10.332
REMARK INTER + INTRA:         -12.911
REMARK INTER:                 -10.417
REMARK INTRA:                  -2.494
REMARK UNBOUND:                -2.678
REMARK  Name = lig_assembled_26.pdb
REMARK  20 active torsions:
REMARK  status: ('A' for Active; 'I' for Inactive)
REMARK    1  A    between atoms: _2  and  _9
REMARK    2  A    between atoms: _4  and  _23
REMARK    3  A    between atoms: _6  and  _7
REMARK    4  A    between atoms: _6  and  _23
REMARK    5  A    between atoms: _9  and  _10
REMARK    6  A    between atoms: _9  and  _11
REMARK    7  A    between atoms: _11  and  _12
REMARK    8  A    between atoms: _12  and  _13
REMARK    9  A    between atoms: _19  and  _39
REMARK   10  A    between atoms: _21  and  _27
REMARK   11  A    between atoms: _22  and  _26
REMARK   12  A    between atoms: _26  and  _27
REMARK   13  A    between atoms: _29  and  _30
REMARK   14  A    between atoms: _31  and  _32
REMARK   15  A    between atoms: _33  and  _35
REMARK   16  A    between atoms: _35  and  _36
REMARK   17  A    between atoms: _35  and  _37
REMARK   18  A    between atoms: _37  and  _38
REMARK   19  A    between atoms: _37  and  _39
REMARK   20  A    between atoms: _40  and  _42
REMARK                            x       y       z     vdW  Elec       q    Type
REMARK                         _______ _______ _______ _____ _____    ______ ____
ROOT
ATOM      1  C   UNL     1      -3.822  12.443  13.640  0.00  0.00    +0.163 C 
ENDROOT
BRANCH   1   2
ATOM      2  O   UNL     1      -2.916  12.429  14.755  0.00  0.00    -0.388 OA
ATOM      3  H   UNL     1      -2.020  12.294  14.438  0.00  0.00    +0.210 HD
ENDBRANCH   1   2
BRANCH   1   4
ATOM      4  C   UNL     1      -3.263  11.622  12.465  0.00  0.00    +0.175 C 
BRANCH   4   5
ATOM      5  C   UNL     1      -3.263  10.115  12.762  0.00  0.00    +0.176 C 
ATOM      6  O   UNL     1      -2.148   9.834  13.652  0.00  0.00    -0.332 OA
ATOM      7  C   UNL     1      -2.053   8.452  14.131  0.00  0.00    +0.277 C 
ATOM      8  C   UNL     1      -2.031   7.466  12.937  0.00  0.00    +0.110 C 
ATOM      9  C   UNL     1      -3.180   7.746  11.946  0.00  0.00    +0.143 C 
ATOM     10  C   UNL     1      -3.188   9.213  11.516  0.00  0.00    +0.133 C 
BRANCH  10  11
ATOM     11  N   UNL     1      -4.338   9.487  10.640  0.00  0.00    -0.308 N 
ATOM     12  H   UNL     1      -5.258   9.245  10.980  0.00  0.00    +0.149 HD
ATOM     13  C   UNL     1      -4.246  10.035   9.425  0.00  0.00    +0.210 C 
ATOM     14  C   UNL     1      -2.828  10.369   8.925  0.00  0.00    +0.109 C 
ATOM     15  O   UNL     1      -5.228  10.267   8.720  0.00  0.00    -0.276 OA
ENDBRANCH  10  11
BRANCH   7  16
ATOM     16  C   UNL     1      -3.237   8.111  15.059  0.00  0.00    +0.414 C 
ATOM     17  O   UNL     1      -3.781   7.009  14.992  0.00  0.00    -0.240 OA
ATOM     18  O   UNL     1      -3.648   8.937  15.875  0.00  0.00    -0.240 OA
ENDBRANCH   7  16
BRANCH   7  19
ATOM     19  O   UNL     1      -0.806   8.315  14.860  0.00  0.00    -0.343 OA
ATOM     20  C   UNL     1      -0.731   7.161  15.735  0.00  0.00    +0.198 C 
ENDBRANCH   7  19
BRANCH   9  21
ATOM     21  O   UNL     1      -3.033   6.918  10.792  0.00  0.00    -0.390 OA
ATOM     22  H   UNL     1      -2.761   7.455  10.044  0.00  0.00    +0.210 HD
ENDBRANCH   9  21
ENDBRANCH   4   5
BRANCH   4  23
ATOM     23  O   UNL     1      -1.929  12.064  12.141  0.00  0.00    -0.387 OA
ATOM     24  H   UNL     1      -1.925  13.018  12.035  0.00  0.00    +0.210 HD
ENDBRANCH   4  23
ENDBRANCH   1   4
BRANCH   1  25
ATOM     25  C   UNL     1      -5.175  11.877  14.059  0.00  0.00    +0.141 C 
BRANCH  25  28
ATOM     26  C   UNL     1      -6.360  11.761  16.224  0.00  0.00    +0.401 C 
ATOM     27  O   UNL     1      -7.448  12.101  15.754  0.00  0.00    -0.226 OA
ATOM     28  N   UNL     1      -5.243  11.637  15.506  0.00  0.00    -0.279 N 
ATOM     29  H   UNL     1      -4.396  11.362  15.984  0.00  0.00    +0.152 HD
BRANCH  26  30
ATOM     30  O   UNL     1      -6.265  11.483  17.623  0.00  0.00    -0.444 OA
BRANCH  30  31
ATOM     31  C   UNL     1      -4.892  11.510  18.024  0.00  0.00    +0.292 C 
BRANCH  31  33
ATOM     32  N   UNL     1      -5.025   9.584  19.583  0.00  0.00    -0.131 NA
ATOM     33  C   UNL     1      -4.733  10.902  19.357  0.00  0.00    +0.120 A 
ATOM     34  C   UNL     1      -4.295  11.474  20.529  0.00  0.00    +0.137 A 
ATOM     35  N   UNL     1      -4.368  10.465  21.442  0.00  0.00    -0.248 N 
ATOM     36  N   UNL     1      -4.782   9.321  20.860  0.00  0.00    -0.065 NA
BRANCH  35  37
ATOM     37  C   UNL     1      -4.004  10.463  22.850  0.00  0.00    +0.113 C 
ATOM     38  C   UNL     1      -3.855   9.065  23.464  0.00  0.00    +0.033 C 
BRANCH  37  39
ATOM     39  C   UNL     1      -2.781  11.350  23.148  0.00  0.00    +0.106 C 
BRANCH  39  40
ATOM     40  C   UNL     1      -2.967  12.282  24.330  0.00  0.00    +0.165 C 
ATOM     41  O   UNL     1      -2.258  12.221  25.333  0.00  0.00    -0.292 OA
BRANCH  40  42
ATOM     42  C   UNL     1      -4.076  13.283  24.291  0.00  0.00    +0.017 A 
ATOM     43  C   UNL     1      -4.233  14.190  23.236  0.00  0.00    +0.011 A 
ATOM     44  C   UNL     1      -5.313  15.076  23.231  0.00  0.00    +0.001 A 
ATOM     45  C   UNL     1      -6.234  15.068  24.278  0.00  0.00    +0.000 A 
ATOM     46  C   UNL     1      -6.077  14.178  25.336  0.00  0.00    +0.001 A 
ATOM     47  C   UNL     1      -5.002  13.287  25.343  0.00  0.00    +0.011 A 
ENDBRANCH  40  42
ENDBRANCH  39  40
ENDBRANCH  37  39
ENDBRANCH  35  37
ENDBRANCH  31  33
ENDBRANCH  30  31
ENDBRANCH  26  30
ENDBRANCH  25  28
ENDBRANCH   1  25
TORSDOF 17
