REMARK VINA RESULT:    -5.126      4.288      9.252
REMARK INTER + INTRA:         -11.251
REMARK INTER:                  -8.822
REMARK INTRA:                  -2.429
REMARK UNBOUND:                -1.779
REMARK  Name = lig_assembled_14.pdb
REMARK  18 active torsions:
REMARK  status: ('A' for Active; 'I' for Inactive)
REMARK    1  A    between atoms: _2  and  _10
REMARK    2  A    between atoms: _3  and  _11
REMARK    3  A    between atoms: _5  and  _19
REMARK    4  A    between atoms: _7  and  _8
REMARK    5  A    between atoms: _7  and  _19
REMARK    6  A    between atoms: _10  and  _11
REMARK    7  A    between atoms: _15  and  _35
REMARK    8  A    between atoms: _17  and  _23
REMARK    9  A    between atoms: _18  and  _22
REMARK   10  A    between atoms: _22  and  _23
REMARK   11  A    between atoms: _25  and  _26
REMARK   12  A    between atoms: _27  and  _28
REMARK   13  A    between atoms: _29  and  _31
REMARK   14  A    between atoms: _31  and  _32
REMARK   15  A    between atoms: _31  and  _33
REMARK   16  A    between atoms: _33  and  _34
REMARK   17  A    between atoms: _33  and  _35
REMARK   18  A    between atoms: _36  and  _38
REMARK                            x       y       z     vdW  Elec       q    Type
REMARK                         _______ _______ _______ _____ _____    ______ ____
ROOT
ATOM      1  C   UNL     1      -6.224   9.450  23.085  0.00  0.00    +0.163 C 
ENDROOT
BRANCH   1   2
ATOM      2  O   UNL     1      -7.053   9.304  24.249  0.00  0.00    -0.388 OA
ATOM      3  H   UNL     1      -6.916   8.435  24.633  0.00  0.00    +0.210 HD
ENDBRANCH   1   2
BRANCH   1   4
ATOM      4  C   UNL     1      -4.892   8.701  23.260  0.00  0.00    +0.175 C 
BRANCH   4   5
ATOM      5  C   UNL     1      -3.891   9.493  24.113  0.00  0.00    +0.176 C 
ATOM      6  O   UNL     1      -4.294   9.371  25.505  0.00  0.00    -0.332 OA
ATOM      7  C   UNL     1      -3.388   9.980  26.483  0.00  0.00    +0.277 C 
ATOM      8  C   UNL     1      -3.143  11.470  26.138  0.00  0.00    +0.110 C 
ATOM      9  C   UNL     1      -2.743  11.654  24.659  0.00  0.00    +0.143 C 
ATOM     10  C   UNL     1      -3.752  10.978  23.730  0.00  0.00    +0.133 C 
BRANCH  10  11
ATOM     11  N   UNL     1      -3.314  11.085  22.329  0.00  0.00    -0.308 N 
ATOM     12  H   UNL     1      -2.527  10.523  22.036  0.00  0.00    +0.149 HD
ATOM     13  C   UNL     1      -3.888  11.876  21.419  0.00  0.00    +0.210 C 
ATOM     14  C   UNL     1      -5.069  12.740  21.903  0.00  0.00    +0.109 C 
ATOM     15  O   UNL     1      -3.510  11.935  20.249  0.00  0.00    -0.276 OA
ENDBRANCH  10  11
BRANCH   7  16
ATOM     16  C   UNL     1      -2.040   9.231  26.521  0.00  0.00    +0.414 C 
ATOM     17  O   UNL     1      -0.985   9.858  26.613  0.00  0.00    -0.240 OA
ATOM     18  O   UNL     1      -2.007   8.002  26.461  0.00  0.00    -0.240 OA
ENDBRANCH   7  16
BRANCH   9  19
ATOM     19  O   UNL     1      -2.675  13.046  24.348  0.00  0.00    -0.390 OA
ATOM     20  H   UNL     1      -2.366  13.532  25.116  0.00  0.00    +0.210 HD
ENDBRANCH   9  19
BRANCH   7  21
ATOM     21  O   UNL     1      -4.022   9.911  27.786  0.00  0.00    -0.343 OA
ATOM     22  C   UNL     1      -4.563  11.166  28.271  0.00  0.00    +0.198 C 
ENDBRANCH   7  21
ENDBRANCH   4   5
BRANCH   4  23
ATOM     23  O   UNL     1      -4.319   8.399  21.972  0.00  0.00    -0.387 OA
ATOM     24  H   UNL     1      -4.958   7.917  21.442  0.00  0.00    +0.210 HD
ENDBRANCH   4  23
ENDBRANCH   1   4
BRANCH   1  25
ATOM     25  C   UNL     1      -6.952   8.916  21.856  0.00  0.00    +0.141 C 
BRANCH  25  28
ATOM     26  C   UNL     1      -6.204   9.781  19.666  0.00  0.00    +0.401 C 
ATOM     27  O   UNL     1      -5.409   8.860  19.468  0.00  0.00    -0.226 OA
ATOM     28  N   UNL     1      -6.961   9.890  20.758  0.00  0.00    -0.279 N 
ATOM     29  H   UNL     1      -7.576  10.688  20.834  0.00  0.00    +0.152 HD
BRANCH  26  30
ATOM     30  O   UNL     1      -6.334  10.810  18.681  0.00  0.00    -0.444 OA
BRANCH  30  31
ATOM     31  C   UNL     1      -5.298  10.672  17.705  0.00  0.00    +0.292 C 
BRANCH  31  33
ATOM     32  N   UNL     1      -6.693  12.304  16.475  0.00  0.00    -0.131 NA
ATOM     33  C   UNL     1      -5.525  11.595  16.579  0.00  0.00    +0.120 A 
ATOM     34  C   UNL     1      -4.717  11.901  15.506  0.00  0.00    +0.137 A 
ATOM     35  N   UNL     1      -5.456  12.787  14.784  0.00  0.00    -0.250 N 
ATOM     36  N   UNL     1      -6.639  13.035  15.372  0.00  0.00    -0.065 NA
BRANCH  35  37
ATOM     37  C   UNL     1      -5.133  13.395  13.511  0.00  0.00    +0.160 C 
BRANCH  37  38
ATOM     38  C   UNL     1      -3.782  12.909  12.972  0.00  0.00    +0.107 C 
BRANCH  38  39
ATOM     39  N   UNL     1      -2.905  14.012  12.542  0.00  0.00    -0.301 NA
ATOM     40  C   UNL     1      -2.873  15.126  13.493  0.00  0.00    +0.084 C 
ATOM     41  C   UNL     1      -1.640  15.893  13.060  0.00  0.00    +0.017 C 
ATOM     42  C   UNL     1      -0.655  14.805  12.673  0.00  0.00    +0.017 C 
ATOM     43  C   UNL     1      -1.509  13.571  12.395  0.00  0.00    +0.084 C 
ENDBRANCH  38  39
ENDBRANCH  37  38
ENDBRANCH  35  37
ENDBRANCH  31  33
ENDBRANCH  30  31
ENDBRANCH  26  30
ENDBRANCH  25  28
ENDBRANCH   1  25
TORSDOF 16
