REMARK VINA RESULT:    -4.082      2.252      6.052
REMARK INTER + INTRA:         -10.913
REMARK INTER:                  -7.978
REMARK INTRA:                  -2.935
REMARK UNBOUND:                -2.894
REMARK  Name = lig_assembled_17.pdb
REMARK  22 active torsions:
REMARK  status: ('A' for Active; 'I' for Inactive)
REMARK    1  A    between atoms: _2  and  _10
REMARK    2  A    between atoms: _3  and  _11
REMARK    3  A    between atoms: _3  and  _12
REMARK    4  A    between atoms: _3  and  _14
REMARK    5  A    between atoms: _5  and  _19
REMARK    6  A    between atoms: _6  and  _14
REMARK    7  A    between atoms: _7  and  _8
REMARK    8  A    between atoms: _7  and  _19
REMARK    9  A    between atoms: _10  and  _11
REMARK   10  A    between atoms: _12  and  _13
REMARK   11  A    between atoms: _15  and  _35
REMARK   12  A    between atoms: _17  and  _23
REMARK   13  A    between atoms: _18  and  _22
REMARK   14  A    between atoms: _22  and  _23
REMARK   15  A    between atoms: _25  and  _26
REMARK   16  A    between atoms: _27  and  _28
REMARK   17  A    between atoms: _29  and  _31
REMARK   18  A    between atoms: _31  and  _32
REMARK   19  A    between atoms: _31  and  _33
REMARK   20  A    between atoms: _33  and  _34
REMARK   21  A    between atoms: _33  and  _35
REMARK   22  A    between atoms: _36  and  _38
REMARK                            x       y       z     vdW  Elec       q    Type
REMARK                         _______ _______ _______ _____ _____    ______ ____
ROOT
ATOM      1  C   UNL     1      -2.784  11.209  26.348  0.00  0.00    +0.163 C 
ENDROOT
BRANCH   1   2
ATOM      2  O   UNL     1      -1.944  12.158  25.671  0.00  0.00    -0.388 OA
ATOM      3  H   UNL     1      -1.661  12.836  26.290  0.00  0.00    +0.210 HD
ENDBRANCH   1   2
BRANCH   1   4
ATOM      4  C   UNL     1      -3.803  10.586  25.378  0.00  0.00    +0.175 C 
BRANCH   4   5
ATOM      5  C   UNL     1      -4.756  11.636  24.788  0.00  0.00    +0.176 C 
ATOM      6  O   UNL     1      -3.992  12.473  23.878  0.00  0.00    -0.332 OA
ATOM      7  C   UNL     1      -4.765  13.473  23.136  0.00  0.00    +0.277 C 
ATOM      8  C   UNL     1      -5.575  14.363  24.110  0.00  0.00    +0.110 C 
ATOM      9  C   UNL     1      -6.380  13.518  25.119  0.00  0.00    +0.143 C 
ATOM     10  C   UNL     1      -5.478  12.509  25.832  0.00  0.00    +0.133 C 
BRANCH  10  11
ATOM     11  N   UNL     1      -6.271  11.651  26.726  0.00  0.00    -0.308 N 
ATOM     12  H   UNL     1      -6.936  11.017  26.305  0.00  0.00    +0.149 HD
ATOM     13  C   UNL     1      -6.170  11.655  28.058  0.00  0.00    +0.210 C 
ATOM     14  C   UNL     1      -5.168  12.651  28.671  0.00  0.00    +0.109 C 
ATOM     15  O   UNL     1      -6.837  10.914  28.781  0.00  0.00    -0.276 OA
ENDBRANCH  10  11
BRANCH   7  16
ATOM     16  C   UNL     1      -5.727  12.792  22.140  0.00  0.00    +0.414 C 
ATOM     17  O   UNL     1      -5.348  11.831  21.471  0.00  0.00    -0.240 OA
ATOM     18  O   UNL     1      -6.880  13.203  22.005  0.00  0.00    -0.240 OA
ENDBRANCH   7  16
BRANCH   9  19
ATOM     19  O   UNL     1      -6.987  14.373  26.088  0.00  0.00    -0.390 OA
ATOM     20  H   UNL     1      -6.634  15.261  25.998  0.00  0.00    +0.210 HD
ENDBRANCH   9  19
BRANCH   7  21
ATOM     21  O   UNL     1      -3.832  14.317  22.413  0.00  0.00    -0.343 OA
ATOM     22  C   UNL     1      -4.289  15.673  22.176  0.00  0.00    +0.198 C 
ENDBRANCH   7  21
ENDBRANCH   4   5
BRANCH   4  23
ATOM     23  O   UNL     1      -4.553   9.551  26.044  0.00  0.00    -0.387 OA
ATOM     24  H   UNL     1      -3.966   9.040  26.605  0.00  0.00    +0.210 HD
ENDBRANCH   4  23
ENDBRANCH   1   4
BRANCH   1  25
ATOM     25  C   UNL     1      -1.932  10.108  26.969  0.00  0.00    +0.141 C 
BRANCH  25  28
ATOM     26  C   UNL     1      -2.873   8.931  28.928  0.00  0.00    +0.401 C 
ATOM     27  O   UNL     1      -3.357   8.013  28.262  0.00  0.00    -0.226 OA
ATOM     28  N   UNL     1      -2.196   9.955  28.405  0.00  0.00    -0.279 N 
ATOM     29  H   UNL     1      -1.845  10.665  29.032  0.00  0.00    +0.152 HD
BRANCH  26  30
ATOM     30  O   UNL     1      -3.038   8.921  30.348  0.00  0.00    -0.444 OA
BRANCH  30  31
ATOM     31  C   UNL     1      -4.079   9.831  30.714  0.00  0.00    +0.292 C 
BRANCH  31  33
ATOM     32  N   UNL     1      -2.206  11.174  31.606  0.00  0.00    -0.131 NA
ATOM     33  C   UNL     1      -3.546  10.891  31.589  0.00  0.00    +0.120 A 
ATOM     34  C   UNL     1      -4.198  11.735  32.461  0.00  0.00    +0.137 A 
ATOM     35  N   UNL     1      -3.200  12.517  32.960  0.00  0.00    -0.250 N 
ATOM     36  N   UNL     1      -2.004  12.172  32.454  0.00  0.00    -0.065 NA
BRANCH  35  37
ATOM     37  C   UNL     1      -3.304  13.633  33.878  0.00  0.00    +0.160 C 
BRANCH  37  38
ATOM     38  C   UNL     1      -4.176  14.746  33.280  0.00  0.00    +0.107 C 
BRANCH  38  39
ATOM     39  N   UNL     1      -3.450  15.912  32.721  0.00  0.00    -0.301 NA
BRANCH  39  40
ATOM     40  C   UNL     1      -3.854  16.246  31.343  0.00  0.00    +0.081 C 
ATOM     41  C   UNL     1      -5.144  15.605  30.838  0.00  0.00    +0.020 C 
ENDBRANCH  39  40
BRANCH  39  42
ATOM     42  C   UNL     1      -3.578  17.046  33.660  0.00  0.00    +0.081 C 
ATOM     43  C   UNL     1      -2.768  18.284  33.285  0.00  0.00    +0.020 C 
ENDBRANCH  39  42
ENDBRANCH  38  39
ENDBRANCH  37  38
ENDBRANCH  35  37
ENDBRANCH  31  33
ENDBRANCH  30  31
ENDBRANCH  26  30
ENDBRANCH  25  28
ENDBRANCH   1  25
TORSDOF 18
