REMARK VINA RESULT:    -4.866      7.123     12.527
REMARK INTER + INTRA:         -11.550
REMARK INTER:                  -8.226
REMARK INTRA:                  -3.324
REMARK UNBOUND:                -2.844
REMARK  Name = lig_assembled_44.pdb
REMARK  17 active torsions:
REMARK  status: ('A' for Active; 'I' for Inactive)
REMARK    1  A    between atoms: _2  and  _9
REMARK    2  A    between atoms: _4  and  _19
REMARK    3  A    between atoms: _6  and  _7
REMARK    4  A    between atoms: _6  and  _19
REMARK    5  A    between atoms: _9  and  _10
REMARK    6  A    between atoms: _15  and  _35
REMARK    7  A    between atoms: _17  and  _23
REMARK    8  A    between atoms: _18  and  _22
REMARK    9  A    between atoms: _22  and  _23
REMARK   10  A    between atoms: _25  and  _26
REMARK   11  A    between atoms: _27  and  _28
REMARK   12  A    between atoms: _29  and  _31
REMARK   13  A    between atoms: _31  and  _32
REMARK   14  A    between atoms: _31  and  _33
REMARK   15  A    between atoms: _33  and  _34
REMARK   16  A    between atoms: _33  and  _35
REMARK   17  A    between atoms: _36  and  _38
REMARK                            x       y       z     vdW  Elec       q    Type
REMARK                         _______ _______ _______ _____ _____    ______ ____
ROOT
ATOM      1  C   UNL     1      -2.333   9.939  27.154  0.00  0.00    +0.163 C 
ENDROOT
BRANCH   1   2
ATOM      2  O   UNL     1      -1.195   9.880  26.279  0.00  0.00    -0.388 OA
ATOM      3  H   UNL     1      -0.951  10.768  26.009  0.00  0.00    +0.210 HD
ENDBRANCH   1   2
BRANCH   1   4
ATOM      4  C   UNL     1      -2.045   9.167  28.438  0.00  0.00    +0.141 C 
BRANCH   4   7
ATOM      5  C   UNL     1      -3.389   9.324  30.505  0.00  0.00    +0.401 C 
ATOM      6  O   UNL     1      -3.838   8.179  30.413  0.00  0.00    -0.226 OA
ATOM      7  N   UNL     1      -2.550   9.869  29.624  0.00  0.00    -0.279 N 
ATOM      8  H   UNL     1      -2.244  10.819  29.781  0.00  0.00    +0.152 HD
BRANCH   5   9
ATOM      9  O   UNL     1      -3.781  10.136  31.615  0.00  0.00    -0.444 OA
BRANCH   9  10
ATOM     10  C   UNL     1      -2.617  10.678  32.245  0.00  0.00    +0.292 C 
BRANCH  10  12
ATOM     11  N   UNL     1      -1.647  12.958  32.238  0.00  0.00    -0.131 NA
ATOM     12  C   UNL     1      -2.738  12.142  32.377  0.00  0.00    +0.120 A 
ATOM     13  C   UNL     1      -3.850  12.914  32.621  0.00  0.00    +0.137 A 
ATOM     14  N   UNL     1      -3.384  14.194  32.540  0.00  0.00    -0.247 N 
ATOM     15  N   UNL     1      -2.053  14.216  32.350  0.00  0.00    -0.065 NA
BRANCH  14  16
ATOM     16  C   UNL     1      -4.136  15.430  32.631  0.00  0.00    +0.180 C 
BRANCH  16  17
ATOM     17  C   UNL     1      -5.062  15.603  31.450  0.00  0.00    -0.026 A 
ATOM     18  C   UNL     1      -4.706  16.434  30.376  0.00  0.00    +0.006 A 
ATOM     19  C   UNL     1      -5.571  16.605  29.294  0.00  0.00    +0.015 A 
ATOM     20  C   UNL     1      -6.798  15.944  29.278  0.00  0.00    +0.018 A 
ATOM     21 BR   UNL     1      -7.959  16.162  27.803  0.00  0.00    -0.050 Br
ATOM     22  C   UNL     1      -7.173  15.124  30.339  0.00  0.00    +0.015 A 
ATOM     23  C   UNL     1      -6.309  14.958  31.426  0.00  0.00    +0.006 A 
ENDBRANCH  16  17
ENDBRANCH  14  16
ENDBRANCH  10  12
ENDBRANCH   9  10
ENDBRANCH   5   9
ENDBRANCH   4   7
ENDBRANCH   1   4
BRANCH   1  24
ATOM     24  C   UNL     1      -3.582   9.355  26.472  0.00  0.00    +0.175 C 
BRANCH  24  25
ATOM     25  C   UNL     1      -4.312  10.397  25.612  0.00  0.00    +0.176 C 
ATOM     26  O   UNL     1      -3.442  10.748  24.501  0.00  0.00    -0.332 OA
ATOM     27  C   UNL     1      -4.019  11.660  23.508  0.00  0.00    +0.277 C 
ATOM     28  C   UNL     1      -4.537  12.948  24.194  0.00  0.00    +0.110 C 
ATOM     29  C   UNL     1      -5.441  12.626  25.402  0.00  0.00    +0.143 C 
ATOM     30  C   UNL     1      -4.744  11.667  26.368  0.00  0.00    +0.133 C 
BRANCH  30  31
ATOM     31  N   UNL     1      -5.648  11.299  27.470  0.00  0.00    -0.308 N 
ATOM     32  H   UNL     1      -6.412  10.672  27.264  0.00  0.00    +0.149 HD
ATOM     33  C   UNL     1      -5.523  11.741  28.725  0.00  0.00    +0.210 C 
ATOM     34  C   UNL     1      -4.364  12.716  29.001  0.00  0.00    +0.109 C 
ATOM     35  O   UNL     1      -6.286  11.404  29.631  0.00  0.00    -0.276 OA
ENDBRANCH  30  31
BRANCH  27  36
ATOM     36  C   UNL     1      -5.175  10.980  22.747  0.00  0.00    +0.414 C 
ATOM     37  O   UNL     1      -5.022   9.863  22.255  0.00  0.00    -0.240 OA
ATOM     38  O   UNL     1      -6.262  11.548  22.625  0.00  0.00    -0.240 OA
ENDBRANCH  27  36
BRANCH  27  39
ATOM     39  O   UNL     1      -2.970  12.029  22.575  0.00  0.00    -0.343 OA
ATOM     40  C   UNL     1      -3.387  12.914  21.505  0.00  0.00    +0.198 C 
ENDBRANCH  27  39
BRANCH  29  41
ATOM     41  O   UNL     1      -5.772  13.832  26.092  0.00  0.00    -0.390 OA
ATOM     42  H   UNL     1      -6.681  14.072  25.899  0.00  0.00    +0.210 HD
ENDBRANCH  29  41
ENDBRANCH  24  25
BRANCH  24  43
ATOM     43  O   UNL     1      -4.479   8.810  27.460  0.00  0.00    -0.387 OA
ATOM     44  H   UNL     1      -4.212   7.914  27.676  0.00  0.00    +0.210 HD
ENDBRANCH  24  43
ENDBRANCH   1  24
TORSDOF 15
