REMARK VINA RESULT:    -5.325      3.639      6.362
REMARK INTER + INTRA:         -12.494
REMARK INTER:                 -10.504
REMARK INTRA:                  -1.990
REMARK UNBOUND:                -2.966
REMARK  Name = lig_assembled_89.pdb
REMARK  19 active torsions:
REMARK  status: ('A' for Active; 'I' for Inactive)
REMARK    1  A    between atoms: _2  and  _12
REMARK    2  A    between atoms: _5  and  _20
REMARK    3  A    between atoms: _7  and  _29
REMARK    4  A    between atoms: _9  and  _10
REMARK    5  A    between atoms: _9  and  _29
REMARK    6  A    between atoms: _20  and  _21
REMARK    7  A    between atoms: _20  and  _22
REMARK    8  A    between atoms: _25  and  _45
REMARK    9  A    between atoms: _27  and  _33
REMARK   10  A    between atoms: _28  and  _32
REMARK   11  A    between atoms: _32  and  _33
REMARK   12  A    between atoms: _35  and  _36
REMARK   13  A    between atoms: _37  and  _38
REMARK   14  A    between atoms: _39  and  _41
REMARK   15  A    between atoms: _41  and  _42
REMARK   16  A    between atoms: _41  and  _43
REMARK   17  A    between atoms: _43  and  _44
REMARK   18  A    between atoms: _43  and  _45
REMARK   19  A    between atoms: _46  and  _48
REMARK                            x       y       z     vdW  Elec       q    Type
REMARK                         _______ _______ _______ _____ _____    ______ ____
ROOT
ATOM      1  C   UNL     1      -4.539  10.877  20.196  0.00  0.00    +0.401 C 
ATOM      2  O   UNL     1      -4.746   9.685  20.437  0.00  0.00    -0.226 OA
ATOM      3  N   UNL     1      -5.033  11.519  19.137  0.00  0.00    -0.279 N 
ATOM      4  H   UNL     1      -4.815  12.500  19.030  0.00  0.00    +0.152 HD
ENDROOT
BRANCH   3   5
ATOM      5  C   UNL     1      -5.875  10.882  18.117  0.00  0.00    +0.141 C 
BRANCH   5   6
ATOM      6  C   UNL     1      -5.147  10.744  16.784  0.00  0.00    +0.163 C 
BRANCH   6   7
ATOM      7  O   UNL     1      -4.501  11.983  16.446  0.00  0.00    -0.388 OA
ATOM      8  H   UNL     1      -3.597  11.808  16.173  0.00  0.00    +0.210 HD
ENDBRANCH   6   7
BRANCH   6   9
ATOM      9  C   UNL     1      -4.127   9.597  16.871  0.00  0.00    +0.175 C 
BRANCH   9  10
ATOM     10  C   UNL     1      -3.819   8.991  15.494  0.00  0.00    +0.176 C 
ATOM     11  O   UNL     1      -3.047   9.965  14.739  0.00  0.00    -0.332 OA
ATOM     12  C   UNL     1      -2.568   9.516  13.428  0.00  0.00    +0.277 C 
ATOM     13  C   UNL     1      -3.749   9.004  12.568  0.00  0.00    +0.110 C 
ATOM     14  C   UNL     1      -4.618   7.989  13.340  0.00  0.00    +0.143 C 
ATOM     15  C   UNL     1      -5.058   8.557  14.689  0.00  0.00    +0.133 C 
BRANCH  15  16
ATOM     16  N   UNL     1      -5.812   7.550  15.452  0.00  0.00    -0.308 N 
ATOM     17  H   UNL     1      -5.307   6.747  15.801  0.00  0.00    +0.149 HD
ATOM     18  C   UNL     1      -7.120   7.626  15.713  0.00  0.00    +0.210 C 
ATOM     19  C   UNL     1      -7.866   8.848  15.145  0.00  0.00    +0.109 C 
ATOM     20  O   UNL     1      -7.722   6.774  16.367  0.00  0.00    -0.276 OA
ENDBRANCH  15  16
BRANCH  12  21
ATOM     21  C   UNL     1      -1.519   8.396  13.583  0.00  0.00    +0.414 C 
ATOM     22  O   UNL     1      -0.828   8.329  14.599  0.00  0.00    -0.240 OA
ATOM     23  O   UNL     1      -1.364   7.559  12.693  0.00  0.00    -0.240 OA
ENDBRANCH  12  21
BRANCH  14  24
ATOM     24  O   UNL     1      -5.775   7.660  12.568  0.00  0.00    -0.390 OA
ATOM     25  H   UNL     1      -5.776   6.719  12.378  0.00  0.00    +0.210 HD
ENDBRANCH  14  24
BRANCH  12  26
ATOM     26  O   UNL     1      -1.971  10.654  12.755  0.00  0.00    -0.343 OA
ATOM     27  C   UNL     1      -2.720  11.891  12.862  0.00  0.00    +0.198 C 
ENDBRANCH  12  26
ENDBRANCH   9  10
BRANCH   9  28
ATOM     28  O   UNL     1      -4.604   8.574  17.768  0.00  0.00    -0.387 OA
ATOM     29  H   UNL     1      -4.082   7.777  17.653  0.00  0.00    +0.210 HD
ENDBRANCH   9  28
ENDBRANCH   6   9
ENDBRANCH   5   6
ENDBRANCH   3   5
BRANCH   1  30
ATOM     30  O   UNL     1      -3.727  11.637  21.095  0.00  0.00    -0.444 OA
BRANCH  30  31
ATOM     31  C   UNL     1      -4.465  11.911  22.289  0.00  0.00    +0.292 C 
BRANCH  31  33
ATOM     32  N   UNL     1      -2.635  12.311  23.892  0.00  0.00    -0.131 NA
ATOM     33  C   UNL     1      -3.674  11.534  23.474  0.00  0.00    +0.121 A 
ATOM     34  C   UNL     1      -3.807  10.465  24.327  0.00  0.00    +0.145 A 
ATOM     35  N   UNL     1      -2.828  10.643  25.286  0.00  0.00    -0.199 N 
ATOM     36  N   UNL     1      -2.135  11.768  24.994  0.00  0.00    -0.059 NA
BRANCH  35  37
ATOM     37  C   UNL     1      -2.642   9.835  26.446  0.00  0.00    +0.186 A 
ATOM     38  C   UNL     1      -3.068  10.042  27.742  0.00  0.00    +0.158 A 
ATOM     39  C   UNL     1      -3.705  11.141  28.401  0.00  0.00    +0.280 A 
ATOM     40  O   UNL     1      -3.680  12.279  27.951  0.00  0.00    -0.265 OA
ATOM     41  N   UNL     1      -4.335  10.826  29.622  0.00  0.00    -0.302 N 
ATOM     42  C   UNL     1      -3.958   9.633  30.347  0.00  0.00    +0.069 A 
ATOM     43  C   UNL     1      -4.335   9.405  31.679  0.00  0.00    +0.028 A 
ATOM     44  C   UNL     1      -3.909   8.261  32.368  0.00  0.00    +0.002 A 
ATOM     45  C   UNL     1      -3.107   7.314  31.740  0.00  0.00    +0.002 A 
ATOM     46  C   UNL     1      -2.726   7.502  30.415  0.00  0.00    +0.028 A 
ATOM     47  C   UNL     1      -3.143   8.656  29.735  0.00  0.00    +0.072 A 
ATOM     48  N   UNL     1      -2.768   8.879  28.400  0.00  0.00    -0.291 N 
ATOM     49  C   UNL     1      -2.084   8.077  27.523  0.00  0.00    +0.207 A 
ATOM     50  N   UNL     1      -1.998   8.618  26.326  0.00  0.00    -0.216 NA
BRANCH  41  51
ATOM     51  C   UNL     1      -5.223  11.846  30.226  0.00  0.00    +0.085 C 
ATOM     52  C   UNL     1      -6.377  12.287  29.304  0.00  0.00    +0.030 C 
ATOM     53  C   UNL     1      -4.440  13.061  30.721  0.00  0.00    +0.030 C 
ENDBRANCH  41  51
ENDBRANCH  35  37
ENDBRANCH  31  33
ENDBRANCH  30  31
ENDBRANCH   1  30
TORSDOF 15
