REMARK VINA RESULT:    -5.030      8.659     13.104
REMARK INTER + INTRA:         -10.746
REMARK INTER:                  -8.109
REMARK INTRA:                  -2.637
REMARK UNBOUND:                -2.334
REMARK  Name = lig_assembled_65.pdb
REMARK  16 active torsions:
REMARK  status: ('A' for Active; 'I' for Inactive)
REMARK    1  A    between atoms: _8  and  _20
REMARK    2  A    between atoms: _9  and  _15
REMARK    3  A    between atoms: _10  and  _11
REMARK    4  A    between atoms: _10  and  _20
REMARK    5  A    between atoms: _16  and  _36
REMARK    6  A    between atoms: _18  and  _24
REMARK    7  A    between atoms: _19  and  _23
REMARK    8  A    between atoms: _23  and  _24
REMARK    9  A    between atoms: _26  and  _27
REMARK   10  A    between atoms: _28  and  _29
REMARK   11  A    between atoms: _30  and  _32
REMARK   12  A    between atoms: _32  and  _33
REMARK   13  A    between atoms: _32  and  _34
REMARK   14  A    between atoms: _34  and  _35
REMARK   15  A    between atoms: _34  and  _36
REMARK   16  A    between atoms: _37  and  _39
REMARK                            x       y       z     vdW  Elec       q    Type
REMARK                         _______ _______ _______ _____ _____    ______ ____
ROOT
ATOM      1  C   UNL     1      -3.015  12.075  25.712  0.00  0.00    +0.163 C 
ENDROOT
BRANCH   1   2
ATOM      2  O   UNL     1      -2.038  12.347  24.694  0.00  0.00    -0.388 OA
ATOM      3  H   UNL     1      -1.391  12.972  25.030  0.00  0.00    +0.210 HD
ENDBRANCH   1   2
BRANCH   1   4
ATOM      4  C   UNL     1      -2.604  10.846  26.516  0.00  0.00    +0.141 C 
BRANCH   4   7
ATOM      5  C   UNL     1      -3.000   9.884  28.757  0.00  0.00    +0.401 C 
ATOM      6  O   UNL     1      -2.207   8.953  28.601  0.00  0.00    -0.226 OA
ATOM      7  N   UNL     1      -3.252  10.811  27.833  0.00  0.00    -0.279 N 
ATOM      8  H   UNL     1      -3.927  11.531  28.051  0.00  0.00    +0.152 HD
BRANCH   5   9
ATOM      9  O   UNL     1      -3.707   9.993  29.995  0.00  0.00    -0.444 OA
BRANCH   9  10
ATOM     10  C   UNL     1      -2.777  10.210  31.059  0.00  0.00    +0.292 C 
BRANCH  10  12
ATOM     11  N   UNL     1      -1.846  12.113  32.342  0.00  0.00    -0.131 NA
ATOM     12  C   UNL     1      -2.766  11.632  31.451  0.00  0.00    +0.121 A 
ATOM     13  C   UNL     1      -3.583  12.662  31.050  0.00  0.00    +0.149 A 
ATOM     14  N   UNL     1      -3.126  13.767  31.739  0.00  0.00    -0.155 N 
ATOM     15  C   UNL     1      -3.652  15.091  31.687  0.00  0.00    +0.416 C 
ATOM     16  N   UNL     1      -3.070  16.040  32.429  0.00  0.00    +0.041 NA
ATOM     17  C   UNL     1      -3.627  17.246  32.342  0.00  0.00    +0.339 C 
ATOM     18  C   UNL     1      -3.029  18.347  33.159  0.00  0.00    +0.149 C 
ATOM     19  N   UNL     1      -4.687  17.536  31.586  0.00  0.00    +0.007 NA
ATOM     20  C   UNL     1      -5.195  16.523  30.902  0.00  0.00    +0.386 C 
ATOM     21  N   UNL     1      -6.299  16.777  30.116  0.00  0.00    -0.296 N 
ATOM     22  H   UNL     1      -6.356  17.760  29.888  0.00  0.00    +0.148 HD
ATOM     23  H   UNL     1      -6.368  16.117  29.356  0.00  0.00    +0.148 HD
ATOM     24  N   UNL     1      -4.714  15.292  30.894  0.00  0.00    -0.290 NA
ATOM     25  N   UNL     1      -2.068  13.411  32.511  0.00  0.00    -0.055 NA
ENDBRANCH  10  12
ENDBRANCH   9  10
ENDBRANCH   5   9
ENDBRANCH   4   7
ENDBRANCH   1   4
BRANCH   1  26
ATOM     26  C   UNL     1      -4.405  11.843  25.093  0.00  0.00    +0.175 C 
BRANCH  26  27
ATOM     27  C   UNL     1      -5.313  13.073  25.235  0.00  0.00    +0.176 C 
ATOM     28  O   UNL     1      -6.550  12.645  25.867  0.00  0.00    -0.332 OA
ATOM     29  C   UNL     1      -7.505  13.713  26.181  0.00  0.00    +0.277 C 
ATOM     30  C   UNL     1      -7.825  14.542  24.913  0.00  0.00    +0.110 C 
ATOM     31  C   UNL     1      -6.539  14.994  24.188  0.00  0.00    +0.143 C 
ATOM     32  C   UNL     1      -5.618  13.805  23.914  0.00  0.00    +0.133 C 
BRANCH  32  33
ATOM     33  N   UNL     1      -4.359  14.259  23.302  0.00  0.00    -0.308 N 
ATOM     34  H   UNL     1      -3.768  14.875  23.841  0.00  0.00    +0.149 HD
ATOM     35  C   UNL     1      -3.947  13.909  22.080  0.00  0.00    +0.210 C 
ATOM     36  C   UNL     1      -4.883  12.990  21.273  0.00  0.00    +0.109 C 
ATOM     37  O   UNL     1      -2.881  14.293  21.599  0.00  0.00    -0.276 OA
ENDBRANCH  32  33
BRANCH  29  38
ATOM     38  C   UNL     1      -6.944  14.642  27.277  0.00  0.00    +0.414 C 
ATOM     39  O   UNL     1      -6.136  14.214  28.100  0.00  0.00    -0.240 OA
ATOM     40  O   UNL     1      -7.299  15.820  27.339  0.00  0.00    -0.240 OA
ENDBRANCH  29  38
BRANCH  29  41
ATOM     41  O   UNL     1      -8.733  13.095  26.645  0.00  0.00    -0.343 OA
ATOM     42  C   UNL     1      -8.849  11.677  26.365  0.00  0.00    +0.198 C 
ENDBRANCH  29  41
BRANCH  31  43
ATOM     43  O   UNL     1      -6.879  15.621  22.951  0.00  0.00    -0.390 OA
ATOM     44  H   UNL     1      -6.077  15.826  22.465  0.00  0.00    +0.210 HD
ENDBRANCH  31  43
ENDBRANCH  26  27
BRANCH  26  45
ATOM     45  O   UNL     1      -5.030  10.692  25.694  0.00  0.00    -0.387 OA
ATOM     46  H   UNL     1      -5.513  10.963  26.479  0.00  0.00    +0.210 HD
ENDBRANCH  26  45
ENDBRANCH   1  26
TORSDOF 13
