REMARK VINA RESULT:    -4.320      1.947      4.062
REMARK INTER + INTRA:         -13.875
REMARK INTER:                  -8.601
REMARK INTRA:                  -5.274
REMARK UNBOUND:                -3.746
REMARK  Name = lig_assembled_30.pdb
REMARK  27 active torsions:
REMARK  status: ('A' for Active; 'I' for Inactive)
REMARK    1  A    between atoms: _2  and  _9
REMARK    2  A    between atoms: _4  and  _25
REMARK    3  A    between atoms: _5  and  _18
REMARK    4  A    between atoms: _5  and  _19
REMARK    5  A    between atoms: _6  and  _7
REMARK    6  A    between atoms: _6  and  _25
REMARK    7  A    between atoms: _9  and  _10
REMARK    8  A    between atoms: _10  and  _11
REMARK    9  A    between atoms: _11  and  _12
REMARK   10  A    between atoms: _12  and  _13
REMARK   11  A    between atoms: _13  and  _14
REMARK   12  A    between atoms: _14  and  _15
REMARK   13  A    between atoms: _15  and  _16
REMARK   14  A    between atoms: _16  and  _17
REMARK   15  A    between atoms: _17  and  _18
REMARK   16  A    between atoms: _21  and  _41
REMARK   17  A    between atoms: _23  and  _29
REMARK   18  A    between atoms: _24  and  _28
REMARK   19  A    between atoms: _28  and  _29
REMARK   20  A    between atoms: _31  and  _32
REMARK   21  A    between atoms: _33  and  _34
REMARK   22  A    between atoms: _35  and  _37
REMARK   23  A    between atoms: _37  and  _38
REMARK   24  A    between atoms: _37  and  _39
REMARK   25  A    between atoms: _39  and  _40
REMARK   26  A    between atoms: _39  and  _41
REMARK   27  A    between atoms: _42  and  _44
REMARK                            x       y       z     vdW  Elec       q    Type
REMARK                         _______ _______ _______ _____ _____    ______ ____
ROOT
ATOM      1  C   UNL     1      -3.069  11.898  25.384  0.00  0.00    +0.401 C 
ATOM      2  O   UNL     1      -1.964  12.439  25.294  0.00  0.00    -0.226 OA
ATOM      3  N   UNL     1      -4.174  12.358  24.796  0.00  0.00    -0.279 N 
ATOM      4  H   UNL     1      -5.032  11.840  24.920  0.00  0.00    +0.152 HD
ENDROOT
BRANCH   1   5
ATOM      5  O   UNL     1      -3.196  10.702  26.156  0.00  0.00    -0.444 OA
BRANCH   5   6
ATOM      6  C   UNL     1      -1.962  10.434  26.828  0.00  0.00    +0.292 C 
BRANCH   6   8
ATOM      7  N   UNL     1      -1.830   7.969  26.638  0.00  0.00    -0.131 NA
ATOM      8  C   UNL     1      -1.985   9.084  27.420  0.00  0.00    +0.120 A 
ATOM      9  C   UNL     1      -2.150   8.696  28.731  0.00  0.00    +0.137 A 
ATOM     10  N   UNL     1      -2.088   7.337  28.678  0.00  0.00    -0.251 N 
ATOM     11  N   UNL     1      -1.897   6.901  27.423  0.00  0.00    -0.065 NA
BRANCH  10  12
ATOM     12  C   UNL     1      -2.242   6.397  29.767  0.00  0.00    +0.145 C 
BRANCH  12  13
ATOM     13  C   UNL     1      -3.508   6.682  30.567  0.00  0.00    +0.023 C 
BRANCH  13  14
ATOM     14  C   UNL     1      -3.194   7.166  31.981  0.00  0.00    +0.002 C 
BRANCH  14  15
ATOM     15  C   UNL     1      -4.033   8.399  32.314  0.00  0.00    +0.000 C 
BRANCH  15  16
ATOM     16  C   UNL     1      -3.167   9.642  32.501  0.00  0.00    +0.000 C 
BRANCH  16  17
ATOM     17  C   UNL     1      -3.496  10.697  31.444  0.00  0.00    +0.000 C 
BRANCH  17  18
ATOM     18  C   UNL     1      -4.992  10.719  31.144  0.00  0.00    +0.000 C 
BRANCH  18  19
ATOM     19  C   UNL     1      -5.267  10.679  29.641  0.00  0.00    +0.001 C 
BRANCH  19  20
ATOM     20  C   UNL     1      -5.984   9.383  29.264  0.00  0.00    +0.011 C 
BRANCH  20  21
ATOM     21  C   UNL     1      -5.735   8.998  27.808  0.00  0.00    +0.120 C 
BRANCH  21  22
ATOM     22  C   UNL     1      -5.615   7.500  27.645  0.00  0.00    +0.305 C 
ATOM     23  O   UNL     1      -6.163   6.665  28.348  0.00  0.00    -0.251 OA
BRANCH  22  24
ATOM     24  O   UNL     1      -4.814   7.157  26.611  0.00  0.00    -0.481 OA
ATOM     25  H   UNL     1      -5.154   7.439  25.741  0.00  0.00    +0.295 HD
ENDBRANCH  22  24
ENDBRANCH  21  22
ENDBRANCH  20  21
ENDBRANCH  19  20
ENDBRANCH  18  19
ENDBRANCH  17  18
ENDBRANCH  16  17
ENDBRANCH  15  16
ENDBRANCH  14  15
ENDBRANCH  13  14
ENDBRANCH  12  13
ENDBRANCH  10  12
ENDBRANCH   6   8
ENDBRANCH   5   6
ENDBRANCH   1   5
BRANCH   3  26
ATOM     26  C   UNL     1      -4.214  13.577  23.978  0.00  0.00    +0.141 C 
BRANCH  26  27
ATOM     27  C   UNL     1      -5.058  13.390  22.721  0.00  0.00    +0.163 C 
BRANCH  27  28
ATOM     28  O   UNL     1      -5.181  14.640  22.022  0.00  0.00    -0.388 OA
ATOM     29  H   UNL     1      -6.099  14.921  22.027  0.00  0.00    +0.210 HD
ENDBRANCH  27  28
BRANCH  27  30
ATOM     30  C   UNL     1      -4.415  12.319  21.824  0.00  0.00    +0.175 C 
BRANCH  30  31
ATOM     31  C   UNL     1      -5.102  10.953  21.973  0.00  0.00    +0.176 C 
ATOM     32  O   UNL     1      -4.248  10.110  22.795  0.00  0.00    -0.332 OA
ATOM     33  C   UNL     1      -4.795   8.793  23.134  0.00  0.00    +0.277 C 
ATOM     34  C   UNL     1      -5.203   8.030  21.850  0.00  0.00    +0.110 C 
ATOM     35  C   UNL     1      -6.086   8.897  20.929  0.00  0.00    +0.143 C 
ATOM     36  C   UNL     1      -5.423  10.245  20.643  0.00  0.00    +0.133 C 
BRANCH  36  37
ATOM     37  N   UNL     1      -6.312  11.096  19.836  0.00  0.00    -0.308 N 
ATOM     38  H   UNL     1      -7.220  11.323  20.216  0.00  0.00    +0.149 HD
ATOM     39  C   UNL     1      -5.996  11.588  18.635  0.00  0.00    +0.210 C 
ATOM     40  C   UNL     1      -4.615  11.202  18.073  0.00  0.00    +0.109 C 
ATOM     41  O   UNL     1      -6.755  12.310  17.988  0.00  0.00    -0.276 OA
ENDBRANCH  36  37
BRANCH  33  42
ATOM     42  C   UNL     1      -6.020   8.932  24.063  0.00  0.00    +0.414 C 
ATOM     43  O   UNL     1      -6.749   7.964  24.276  0.00  0.00    -0.240 OA
ATOM     44  O   UNL     1      -6.277  10.010  24.599  0.00  0.00    -0.240 OA
ENDBRANCH  33  42
BRANCH  35  45
ATOM     45  O   UNL     1      -6.312   8.214  19.695  0.00  0.00    -0.390 OA
ATOM     46  H   UNL     1      -5.573   7.629  19.513  0.00  0.00    +0.210 HD
ENDBRANCH  35  45
BRANCH  33  47
ATOM     47  O   UNL     1      -3.756   8.035  23.806  0.00  0.00    -0.343 OA
ATOM     48  C   UNL     1      -3.643   6.650  23.391  0.00  0.00    +0.198 C 
ENDBRANCH  33  47
ENDBRANCH  30  31
BRANCH  30  49
ATOM     49  O   UNL     1      -3.009  12.202  22.120  0.00  0.00    -0.387 OA
ATOM     50  H   UNL     1      -2.795  11.285  22.304  0.00  0.00    +0.210 HD
ENDBRANCH  30  49
ENDBRANCH  27  30
ENDBRANCH  26  27
ENDBRANCH   3  26
TORSDOF 25
