REMARK VINA RESULT:    -4.560      2.659     10.475
REMARK INTER + INTRA:         -11.251
REMARK INTER:                  -8.776
REMARK INTRA:                  -2.475
REMARK UNBOUND:                -3.358
REMARK  Name = lig_assembled_42.pdb
REMARK  16 active torsions:
REMARK  status: ('A' for Active; 'I' for Inactive)
REMARK    1  A    between atoms: _2  and  _9
REMARK    2  A    between atoms: _4  and  _21
REMARK    3  A    between atoms: _6  and  _7
REMARK    4  A    between atoms: _6  and  _21
REMARK    5  A    between atoms: _17  and  _37
REMARK    6  A    between atoms: _19  and  _25
REMARK    7  A    between atoms: _20  and  _24
REMARK    8  A    between atoms: _24  and  _25
REMARK    9  A    between atoms: _27  and  _28
REMARK   10  A    between atoms: _29  and  _30
REMARK   11  A    between atoms: _31  and  _33
REMARK   12  A    between atoms: _33  and  _34
REMARK   13  A    between atoms: _33  and  _35
REMARK   14  A    between atoms: _35  and  _36
REMARK   15  A    between atoms: _35  and  _37
REMARK   16  A    between atoms: _38  and  _40
REMARK                            x       y       z     vdW  Elec       q    Type
REMARK                         _______ _______ _______ _____ _____    ______ ____
ROOT
ATOM      1  C   UNL     1      -6.397   9.418  23.120  0.00  0.00    +0.163 C 
ENDROOT
BRANCH   1   2
ATOM      2  O   UNL     1      -7.214   9.309  24.297  0.00  0.00    -0.388 OA
ATOM      3  H   UNL     1      -6.848   8.639  24.880  0.00  0.00    +0.210 HD
ENDBRANCH   1   2
BRANCH   1   4
ATOM      4  C   UNL     1      -7.152   8.879  21.910  0.00  0.00    +0.141 C 
BRANCH   4   7
ATOM      5  C   UNL     1      -6.462   9.695  19.682  0.00  0.00    +0.401 C 
ATOM      6  O   UNL     1      -5.711   8.742  19.461  0.00  0.00    -0.226 OA
ATOM      7  N   UNL     1      -7.170   9.843  20.802  0.00  0.00    -0.279 N 
ATOM      8  H   UNL     1      -7.751  10.664  20.894  0.00  0.00    +0.152 HD
BRANCH   5   9
ATOM      9  O   UNL     1      -6.595  10.718  18.691  0.00  0.00    -0.444 OA
BRANCH   9  10
ATOM     10  C   UNL     1      -6.881  10.121  17.423  0.00  0.00    +0.292 C 
BRANCH  10  12
ATOM     11  N   UNL     1      -4.974   9.445  15.988  0.00  0.00    -0.131 NA
ATOM     12  C   UNL     1      -5.808  10.418  16.457  0.00  0.00    +0.121 A 
ATOM     13  C   UNL     1      -5.459  11.618  15.887  0.00  0.00    +0.143 A 
ATOM     14  N   UNL     1      -4.395  11.331  15.065  0.00  0.00    -0.220 N 
ATOM     15  N   UNL     1      -4.117  10.006  15.142  0.00  0.00    -0.060 NA
BRANCH  14  16
ATOM     16  C   UNL     1      -3.654  12.218  14.244  0.00  0.00    +0.071 A 
ATOM     17  C   UNL     1      -2.762  11.711  13.288  0.00  0.00    +0.077 A 
ATOM     18  C   UNL     1      -2.066  12.614  12.514  0.00  0.00    +0.168 A 
ATOM     19  O   UNL     1      -1.170  12.287  11.546  0.00  0.00    -0.453 OA
ATOM     20  C   UNL     1      -0.782  13.598  11.086  0.00  0.00    +0.466 C 
ATOM     21  O   UNL     1      -1.442  14.671  11.791  0.00  0.00    -0.453 OA
ATOM     22  C   UNL     1      -2.223  13.971  12.655  0.00  0.00    +0.166 A 
ATOM     23  C   UNL     1      -3.089  14.506  13.585  0.00  0.00    +0.051 A 
ATOM     24  C   UNL     1      -3.815  13.617  14.390  0.00  0.00    +0.031 A 
ENDBRANCH  14  16
ENDBRANCH  10  12
ENDBRANCH   9  10
ENDBRANCH   5   9
ENDBRANCH   4   7
ENDBRANCH   1   4
BRANCH   1  25
ATOM     25  C   UNL     1      -5.080   8.641  23.291  0.00  0.00    +0.175 C 
BRANCH  25  26
ATOM     26  C   UNL     1      -4.035   9.443  24.081  0.00  0.00    +0.176 C 
ATOM     27  O   UNL     1      -4.404   9.395  25.487  0.00  0.00    -0.332 OA
ATOM     28  C   UNL     1      -3.457  10.023  26.413  0.00  0.00    +0.277 C 
ATOM     29  C   UNL     1      -3.180  11.487  25.994  0.00  0.00    +0.110 C 
ATOM     30  C   UNL     1      -2.814  11.592  24.498  0.00  0.00    +0.143 C 
ATOM     31  C   UNL     1      -3.865  10.904  23.626  0.00  0.00    +0.133 C 
BRANCH  31  32
ATOM     32  N   UNL     1      -3.461  10.935  22.212  0.00  0.00    -0.308 N 
ATOM     33  H   UNL     1      -2.707  10.328  21.923  0.00  0.00    +0.149 HD
ATOM     34  C   UNL     1      -4.027  11.712  21.284  0.00  0.00    +0.210 C 
ATOM     35  C   UNL     1      -5.157  12.644  21.761  0.00  0.00    +0.109 C 
ATOM     36  O   UNL     1      -3.678  11.706  20.103  0.00  0.00    -0.276 OA
ENDBRANCH  31  32
BRANCH  28  37
ATOM     37  C   UNL     1      -2.129   9.238  26.452  0.00  0.00    +0.414 C 
ATOM     38  O   UNL     1      -2.136   8.007  26.467  0.00  0.00    -0.240 OA
ATOM     39  O   UNL     1      -1.052   9.834  26.469  0.00  0.00    -0.240 OA
ENDBRANCH  28  37
BRANCH  30  40
ATOM     40  O   UNL     1      -2.716  12.966  24.121  0.00  0.00    -0.390 OA
ATOM     41  H   UNL     1      -1.819  13.158  23.837  0.00  0.00    +0.210 HD
ENDBRANCH  30  40
BRANCH  28  42
ATOM     42  O   UNL     1      -4.058  10.031  27.733  0.00  0.00    -0.343 OA
ATOM     43  C   UNL     1      -4.536  11.325  28.181  0.00  0.00    +0.198 C 
ENDBRANCH  28  42
ENDBRANCH  25  26
BRANCH  25  44
ATOM     44  O   UNL     1      -4.551   8.271  22.002  0.00  0.00    -0.387 OA
ATOM     45  H   UNL     1      -4.629   7.321  21.884  0.00  0.00    +0.210 HD
ENDBRANCH  25  44
ENDBRANCH   1  25
TORSDOF 14
