REMARK VINA RESULT:    -4.193      2.852      5.993
REMARK INTER + INTRA:         -11.513
REMARK INTER:                  -8.727
REMARK INTRA:                  -2.785
REMARK UNBOUND:                -2.785
REMARK  Name = lig_assembled_54.pdb
REMARK  24 active torsions:
REMARK  status: ('A' for Active; 'I' for Inactive)
REMARK    1  A    between atoms: _2  and  _9
REMARK    2  A    between atoms: _4  and  _21
REMARK    3  A    between atoms: _5  and  _14
REMARK    4  A    between atoms: _6  and  _7
REMARK    5  A    between atoms: _6  and  _21
REMARK    6  A    between atoms: _9  and  _10
REMARK    7  A    between atoms: _10  and  _11
REMARK    8  A    between atoms: _11  and  _15
REMARK    9  A    between atoms: _11  and  _16
REMARK   10  A    between atoms: _12  and  _13
REMARK   11  A    between atoms: _12  and  _16
REMARK   12  A    between atoms: _14  and  _15
REMARK   13  A    between atoms: _17  and  _37
REMARK   14  A    between atoms: _19  and  _25
REMARK   15  A    between atoms: _20  and  _24
REMARK   16  A    between atoms: _24  and  _25
REMARK   17  A    between atoms: _27  and  _28
REMARK   18  A    between atoms: _29  and  _30
REMARK   19  A    between atoms: _31  and  _33
REMARK   20  A    between atoms: _33  and  _34
REMARK   21  A    between atoms: _33  and  _35
REMARK   22  A    between atoms: _35  and  _36
REMARK   23  A    between atoms: _35  and  _37
REMARK   24  A    between atoms: _38  and  _40
REMARK                            x       y       z     vdW  Elec       q    Type
REMARK                         _______ _______ _______ _____ _____    ______ ____
ROOT
ATOM      1  C   UNL     1      -4.366   8.989  23.842  0.00  0.00    +0.163 C 
ENDROOT
BRANCH   1   2
ATOM      2  O   UNL     1      -3.934   8.289  22.664  0.00  0.00    -0.388 OA
ATOM      3  H   UNL     1      -3.026   7.998  22.779  0.00  0.00    +0.210 HD
ENDBRANCH   1   2
BRANCH   1   4
ATOM      4  C   UNL     1      -5.758   9.610  23.634  0.00  0.00    +0.175 C 
BRANCH   4   5
ATOM      5  C   UNL     1      -5.689  10.944  22.876  0.00  0.00    +0.176 C 
ATOM      6  O   UNL     1      -5.366  10.653  21.488  0.00  0.00    -0.332 OA
ATOM      7  C   UNL     1      -5.361  11.807  20.584  0.00  0.00    +0.277 C 
ATOM      8  C   UNL     1      -4.418  12.912  21.121  0.00  0.00    +0.110 C 
ATOM      9  C   UNL     1      -4.702  13.232  22.603  0.00  0.00    +0.143 C 
ATOM     10  C   UNL     1      -4.686  11.961  23.452  0.00  0.00    +0.133 C 
BRANCH  10  11
ATOM     11  N   UNL     1      -5.044  12.268  24.846  0.00  0.00    -0.308 N 
ATOM     12  H   UNL     1      -6.015  12.454  25.054  0.00  0.00    +0.149 HD
ATOM     13  C   UNL     1      -4.169  12.316  25.855  0.00  0.00    +0.210 C 
ATOM     14  C   UNL     1      -2.693  12.054  25.501  0.00  0.00    +0.109 C 
ATOM     15  O   UNL     1      -4.500  12.562  27.015  0.00  0.00    -0.276 OA
ENDBRANCH  10  11
BRANCH   7  16
ATOM     16  C   UNL     1      -6.784  12.380  20.420  0.00  0.00    +0.414 C 
ATOM     17  O   UNL     1      -7.765  11.646  20.537  0.00  0.00    -0.240 OA
ATOM     18  O   UNL     1      -6.952  13.574  20.170  0.00  0.00    -0.240 OA
ENDBRANCH   7  16
BRANCH   9  19
ATOM     19  O   UNL     1      -3.717  14.141  23.097  0.00  0.00    -0.390 OA
ATOM     20  H   UNL     1      -3.285  14.578  22.359  0.00  0.00    +0.210 HD
ENDBRANCH   9  19
BRANCH   7  21
ATOM     21  O   UNL     1      -4.861  11.365  19.295  0.00  0.00    -0.343 OA
ATOM     22  C   UNL     1      -4.960   9.939  19.057  0.00  0.00    +0.198 C 
ENDBRANCH   7  21
ENDBRANCH   4   5
BRANCH   4  23
ATOM     23  O   UNL     1      -6.415   9.793  24.904  0.00  0.00    -0.387 OA
ATOM     24  H   UNL     1      -5.930   9.323  25.586  0.00  0.00    +0.210 HD
ENDBRANCH   4  23
ENDBRANCH   1   4
BRANCH   1  25
ATOM     25  C   UNL     1      -4.406   8.035  25.031  0.00  0.00    +0.141 C 
BRANCH  25  28
ATOM     26  C   UNL     1      -2.792   8.593  26.817  0.00  0.00    +0.401 C 
ATOM     27  O   UNL     1      -1.879   7.921  26.332  0.00  0.00    -0.226 OA
ATOM     28  N   UNL     1      -4.007   8.699  26.279  0.00  0.00    -0.279 N 
ATOM     29  H   UNL     1      -4.693   9.267  26.756  0.00  0.00    +0.152 HD
BRANCH  26  30
ATOM     30  O   UNL     1      -2.557   9.309  28.033  0.00  0.00    -0.444 OA
BRANCH  30  31
ATOM     31  C   UNL     1      -3.630   9.064  28.946  0.00  0.00    +0.292 C 
BRANCH  31  33
ATOM     32  N   UNL     1      -3.114   9.040  31.369  0.00  0.00    -0.131 NA
ATOM     33  C   UNL     1      -3.370   9.751  30.226  0.00  0.00    +0.120 A 
ATOM     34  C   UNL     1      -3.313  11.098  30.512  0.00  0.00    +0.137 A 
ATOM     35  N   UNL     1      -2.982  11.140  31.832  0.00  0.00    -0.251 N 
ATOM     36  N   UNL     1      -2.869   9.902  32.346  0.00  0.00    -0.065 NA
BRANCH  35  37
ATOM     37  C   UNL     1      -2.699  12.301  32.652  0.00  0.00    +0.150 C 
BRANCH  37  38
ATOM     38  C   UNL     1      -2.412  13.532  31.806  0.00  0.00    +0.084 C 
BRANCH  38  39
ATOM     39  C   UNL     1      -3.585  14.518  31.745  0.00  0.00    +0.252 C 
BRANCH  39  40
ATOM     40  O   UNL     1      -4.208  14.464  30.459  0.00  0.00    -0.352 OA
BRANCH  40  41
ATOM     41  C   UNL     1      -5.633  14.485  30.500  0.00  0.00    +0.159 C 
ATOM     42  C   UNL     1      -6.132  15.591  29.590  0.00  0.00    +0.034 C 
ENDBRANCH  40  41
ENDBRANCH  39  40
BRANCH  39  43
ATOM     43  O   UNL     1      -3.061  15.831  31.977  0.00  0.00    -0.352 OA
BRANCH  43  44
ATOM     44  C   UNL     1      -3.828  16.565  32.934  0.00  0.00    +0.159 C 
ATOM     45  C   UNL     1      -4.193  17.914  32.347  0.00  0.00    +0.034 C 
ENDBRANCH  43  44
ENDBRANCH  39  43
ENDBRANCH  38  39
ENDBRANCH  37  38
ENDBRANCH  35  37
ENDBRANCH  31  33
ENDBRANCH  30  31
ENDBRANCH  26  30
ENDBRANCH  25  28
ENDBRANCH   1  25
TORSDOF 20
