REMARK VINA RESULT:    -4.890      4.175      8.786
REMARK INTER + INTRA:         -11.631
REMARK INTER:                  -8.188
REMARK INTRA:                  -3.443
REMARK UNBOUND:                -2.453
REMARK  Name = lig_assembled_75.pdb
REMARK  19 active torsions:
REMARK  status: ('A' for Active; 'I' for Inactive)
REMARK    1  A    between atoms: _2  and  _9
REMARK    2  A    between atoms: _4  and  _23
REMARK    3  A    between atoms: _6  and  _7
REMARK    4  A    between atoms: _6  and  _23
REMARK    5  A    between atoms: _11  and  _12
REMARK    6  A    between atoms: _13  and  _14
REMARK    7  A    between atoms: _14  and  _17
REMARK    8  A    between atoms: _19  and  _39
REMARK    9  A    between atoms: _21  and  _27
REMARK   10  A    between atoms: _22  and  _26
REMARK   11  A    between atoms: _26  and  _27
REMARK   12  A    between atoms: _29  and  _30
REMARK   13  A    between atoms: _31  and  _32
REMARK   14  A    between atoms: _33  and  _35
REMARK   15  A    between atoms: _35  and  _36
REMARK   16  A    between atoms: _35  and  _37
REMARK   17  A    between atoms: _37  and  _38
REMARK   18  A    between atoms: _37  and  _39
REMARK   19  A    between atoms: _40  and  _42
REMARK                            x       y       z     vdW  Elec       q    Type
REMARK                         _______ _______ _______ _____ _____    ______ ____
ROOT
ATOM      1  C   UNL     1      -3.215  11.976  22.617  0.00  0.00    +0.141 C 
ENDROOT
BRANCH   1   4
ATOM      2  C   UNL     1      -4.572  14.041  22.648  0.00  0.00    +0.401 C 
ATOM      3  O   UNL     1      -4.885  13.965  21.457  0.00  0.00    -0.226 OA
ATOM      4  N   UNL     1      -3.790  13.159  23.271  0.00  0.00    -0.279 N 
ATOM      5  H   UNL     1      -3.581  13.312  24.247  0.00  0.00    +0.152 HD
BRANCH   2   6
ATOM      6  O   UNL     1      -5.061  15.136  23.426  0.00  0.00    -0.444 OA
BRANCH   6   7
ATOM      7  C   UNL     1      -6.475  15.007  23.596  0.00  0.00    +0.292 C 
BRANCH   7   9
ATOM      8  N   UNL     1      -7.732  13.141  24.624  0.00  0.00    -0.131 NA
ATOM      9  C   UNL     1      -6.777  14.111  24.728  0.00  0.00    +0.121 A 
ATOM     10  C   UNL     1      -6.226  14.068  25.987  0.00  0.00    +0.143 A 
ATOM     11  N   UNL     1      -6.883  13.044  26.629  0.00  0.00    -0.220 N 
ATOM     12  N   UNL     1      -7.792  12.498  25.782  0.00  0.00    -0.060 NA
BRANCH  11  13
ATOM     13  C   UNL     1      -6.729  12.583  27.961  0.00  0.00    +0.068 A 
ATOM     14  C   UNL     1      -5.617  13.004  28.712  0.00  0.00    +0.035 A 
ATOM     15  C   UNL     1      -5.398  12.515  30.008  0.00  0.00    -0.023 A 
ATOM     16  C   UNL     1      -6.344  11.648  30.568  0.00  0.00    +0.008 A 
ATOM     17  C   UNL     1      -7.463  11.244  29.835  0.00  0.00    +0.003 A 
ATOM     18  C   UNL     1      -7.653  11.701  28.532  0.00  0.00    +0.028 A 
BRANCH  15  19
ATOM     19  C   UNL     1      -4.224  12.896  30.808  0.00  0.00    +0.015 C 
ATOM     20  C   UNL     1      -3.863  14.167  31.046  0.00  0.00    +0.092 C 
BRANCH  20  21
ATOM     21  C   UNL     1      -2.637  14.447  31.816  0.00  0.00    +0.330 C 
ATOM     22  O   UNL     1      -2.562  15.239  32.739  0.00  0.00    -0.246 OA
BRANCH  21  23
ATOM     23  O   UNL     1      -1.593  13.708  31.388  0.00  0.00    -0.478 OA
ATOM     24  H   UNL     1      -1.181  13.134  32.057  0.00  0.00    +0.295 HD
ENDBRANCH  21  23
ENDBRANCH  20  21
ENDBRANCH  15  19
ENDBRANCH  11  13
ENDBRANCH   7   9
ENDBRANCH   6   7
ENDBRANCH   2   6
ENDBRANCH   1   4
BRANCH   1  25
ATOM     25  C   UNL     1      -4.292  11.077  22.019  0.00  0.00    +0.163 C 
BRANCH  25  26
ATOM     26  O   UNL     1      -4.092  10.947  20.602  0.00  0.00    -0.388 OA
ATOM     27  H   UNL     1      -4.932  10.757  20.176  0.00  0.00    +0.210 HD
ENDBRANCH  25  26
BRANCH  25  28
ATOM     28  C   UNL     1      -4.254   9.702  22.708  0.00  0.00    +0.175 C 
BRANCH  28  29
ATOM     29  C   UNL     1      -4.294   9.822  24.239  0.00  0.00    +0.176 C 
ATOM     30  O   UNL     1      -3.141   9.115  24.773  0.00  0.00    -0.332 OA
ATOM     31  C   UNL     1      -2.955   9.211  26.224  0.00  0.00    +0.277 C 
ATOM     32  C   UNL     1      -4.236   8.757  26.965  0.00  0.00    +0.110 C 
ATOM     33  C   UNL     1      -5.494   9.459  26.410  0.00  0.00    +0.143 C 
ATOM     34  C   UNL     1      -5.587   9.298  24.892  0.00  0.00    +0.133 C 
BRANCH  34  35
ATOM     35  N   UNL     1      -6.741  10.044  24.365  0.00  0.00    -0.308 N 
ATOM     36  H   UNL     1      -6.758  11.045  24.502  0.00  0.00    +0.149 HD
ATOM     37  C   UNL     1      -7.766   9.484  23.718  0.00  0.00    +0.210 C 
ATOM     38  C   UNL     1      -7.723   7.954  23.549  0.00  0.00    +0.109 C 
ATOM     39  O   UNL     1      -8.713  10.135  23.274  0.00  0.00    -0.276 OA
ENDBRANCH  34  35
BRANCH  31  40
ATOM     40  C   UNL     1      -2.605  10.656  26.636  0.00  0.00    +0.414 C 
ATOM     41  O   UNL     1      -2.933  11.082  27.743  0.00  0.00    -0.240 OA
ATOM     42  O   UNL     1      -1.996  11.396  25.862  0.00  0.00    -0.240 OA
ENDBRANCH  31  40
BRANCH  31  43
ATOM     43  O   UNL     1      -1.871   8.321  26.597  0.00  0.00    -0.343 OA
ATOM     44  C   UNL     1      -2.198   7.359  27.632  0.00  0.00    +0.198 C 
ENDBRANCH  31  43
BRANCH  33  45
ATOM     45  O   UNL     1      -6.662   8.903  27.015  0.00  0.00    -0.390 OA
ATOM     46  H   UNL     1      -6.440   8.553  27.881  0.00  0.00    +0.210 HD
ENDBRANCH  33  45
ENDBRANCH  28  29
BRANCH  28  47
ATOM     47  O   UNL     1      -3.081   8.973  22.298  0.00  0.00    -0.387 OA
ATOM     48  H   UNL     1      -3.344   8.135  21.909  0.00  0.00    +0.210 HD
ENDBRANCH  28  47
ENDBRANCH  25  28
ENDBRANCH   1  25
TORSDOF 17
