REMARK VINA RESULT:    -5.171      3.026      7.134
REMARK INTER + INTRA:         -10.947
REMARK INTER:                  -7.879
REMARK INTRA:                  -3.068
REMARK UNBOUND:                -1.997
REMARK  Name = lig_assembled_57.pdb
REMARK  17 active torsions:
REMARK  status: ('A' for Active; 'I' for Inactive)
REMARK    1  A    between atoms: _2  and  _10
REMARK    2  A    between atoms: _3  and  _13
REMARK    3  A    between atoms: _5  and  _19
REMARK    4  A    between atoms: _7  and  _8
REMARK    5  A    between atoms: _7  and  _19
REMARK    6  A    between atoms: _15  and  _35
REMARK    7  A    between atoms: _17  and  _23
REMARK    8  A    between atoms: _18  and  _22
REMARK    9  A    between atoms: _22  and  _23
REMARK   10  A    between atoms: _25  and  _26
REMARK   11  A    between atoms: _27  and  _28
REMARK   12  A    between atoms: _29  and  _31
REMARK   13  A    between atoms: _31  and  _32
REMARK   14  A    between atoms: _31  and  _33
REMARK   15  A    between atoms: _33  and  _34
REMARK   16  A    between atoms: _33  and  _35
REMARK   17  A    between atoms: _36  and  _38
REMARK                            x       y       z     vdW  Elec       q    Type
REMARK                         _______ _______ _______ _____ _____    ______ ____
ROOT
ATOM      1  C   UNL     1      -5.385   8.278  25.180  0.00  0.00    +0.163 C 
ENDROOT
BRANCH   1   2
ATOM      2  O   UNL     1      -5.686   8.924  26.428  0.00  0.00    -0.388 OA
ATOM      3  H   UNL     1      -5.464   8.337  27.154  0.00  0.00    +0.210 HD
ENDBRANCH   1   2
BRANCH   1   4
ATOM      4  C   UNL     1      -3.911   7.888  25.136  0.00  0.00    +0.141 C 
BRANCH   4   7
ATOM      5  C   UNL     1      -2.128   7.848  26.847  0.00  0.00    +0.401 C 
ATOM      6  O   UNL     1      -1.702   6.740  26.511  0.00  0.00    -0.226 OA
ATOM      7  N   UNL     1      -3.161   8.457  26.263  0.00  0.00    -0.279 N 
ATOM      8  H   UNL     1      -3.443   9.361  26.615  0.00  0.00    +0.152 HD
BRANCH   5   9
ATOM      9  O   UNL     1      -1.495   8.537  27.928  0.00  0.00    -0.444 OA
BRANCH   9  10
ATOM     10  C   UNL     1      -2.132   8.183  29.158  0.00  0.00    +0.292 C 
BRANCH  10  12
ATOM     11  N   UNL     1      -4.224   9.489  29.026  0.00  0.00    -0.131 NA
ATOM     12  C   UNL     1      -3.006   9.282  29.608  0.00  0.00    +0.120 A 
ATOM     13  C   UNL     1      -2.822  10.210  30.611  0.00  0.00    +0.137 A 
ATOM     14  N   UNL     1      -3.999  10.896  30.650  0.00  0.00    -0.248 N 
ATOM     15  N   UNL     1      -4.808  10.503  29.644  0.00  0.00    -0.065 NA
BRANCH  14  16
ATOM     16  C   UNL     1      -4.503  11.881  31.600  0.00  0.00    +0.111 C 
ATOM     17  C   UNL     1      -3.343  12.570  32.336  0.00  0.00    +0.042 C 
ATOM     18  C   UNL     1      -2.639  13.563  31.414  0.00  0.00    +0.086 C 
ATOM     19  N   UNL     1      -3.537  14.605  30.903  0.00  0.00    -0.305 NA
ATOM     20  C   UNL     1      -4.721  14.052  30.244  0.00  0.00    +0.086 C 
ATOM     21  C   UNL     1      -3.866  15.600  31.919  0.00  0.00    +0.104 C 
ATOM     22  C   UNL     1      -5.448  12.953  31.031  0.00  0.00    +0.042 C 
ENDBRANCH  14  16
ENDBRANCH  10  12
ENDBRANCH   9  10
ENDBRANCH   5   9
ENDBRANCH   4   7
ENDBRANCH   1   4
BRANCH   1  23
ATOM     23  C   UNL     1      -5.708   9.200  23.991  0.00  0.00    +0.175 C 
BRANCH  23  24
ATOM     24  C   UNL     1      -4.797  10.436  23.954  0.00  0.00    +0.176 C 
ATOM     25  O   UNL     1      -5.186  11.311  25.049  0.00  0.00    -0.332 OA
ATOM     26  C   UNL     1      -4.351  12.501  25.236  0.00  0.00    +0.277 C 
ATOM     27  C   UNL     1      -4.265  13.315  23.921  0.00  0.00    +0.110 C 
ATOM     28  C   UNL     1      -3.885  12.420  22.723  0.00  0.00    +0.143 C 
ATOM     29  C   UNL     1      -4.816  11.211  22.624  0.00  0.00    +0.133 C 
BRANCH  29  30
ATOM     30  N   UNL     1      -4.391  10.322  21.531  0.00  0.00    -0.308 N 
ATOM     31  H   UNL     1      -3.480   9.890  21.602  0.00  0.00    +0.149 HD
ATOM     32  C   UNL     1      -5.129  10.048  20.453  0.00  0.00    +0.210 C 
ATOM     33  C   UNL     1      -6.502  10.742  20.362  0.00  0.00    +0.109 C 
ATOM     34  O   UNL     1      -4.753   9.287  19.560  0.00  0.00    -0.276 OA
ENDBRANCH  29  30
BRANCH  26  35
ATOM     35  C   UNL     1      -2.931  12.107  25.692  0.00  0.00    +0.414 C 
ATOM     36  O   UNL     1      -2.775  11.321  26.626  0.00  0.00    -0.240 OA
ATOM     37  O   UNL     1      -1.941  12.575  25.127  0.00  0.00    -0.240 OA
ENDBRANCH  26  35
BRANCH  28  38
ATOM     38  O   UNL     1      -3.965  13.176  21.513  0.00  0.00    -0.390 OA
ATOM     39  H   UNL     1      -3.675  12.634  20.776  0.00  0.00    +0.210 HD
ENDBRANCH  28  38
BRANCH  26  40
ATOM     40  O   UNL     1      -4.976  13.333  26.248  0.00  0.00    -0.343 OA
ATOM     41  C   UNL     1      -6.177  12.777  26.841  0.00  0.00    +0.198 C 
ENDBRANCH  26  40
ENDBRANCH  23  24
BRANCH  23  42
ATOM     42  O   UNL     1      -7.091   9.604  24.037  0.00  0.00    -0.387 OA
ATOM     43  H   UNL     1      -7.155  10.548  23.875  0.00  0.00    +0.210 HD
ENDBRANCH  23  42
ENDBRANCH   1  23
TORSDOF 14
