REMARK VINA RESULT:    -4.511      2.610      6.102
REMARK INTER + INTRA:         -10.874
REMARK INTER:                  -7.810
REMARK INTRA:                  -3.064
REMARK UNBOUND:                -3.067
REMARK  Name = lig_assembled_8.pdb
REMARK  16 active torsions:
REMARK  status: ('A' for Active; 'I' for Inactive)
REMARK    1  A    between atoms: _2  and  _9
REMARK    2  A    between atoms: _4  and  _18
REMARK    3  A    between atoms: _6  and  _7
REMARK    4  A    between atoms: _6  and  _18
REMARK    5  A    between atoms: _14  and  _34
REMARK    6  A    between atoms: _16  and  _22
REMARK    7  A    between atoms: _17  and  _21
REMARK    8  A    between atoms: _21  and  _22
REMARK    9  A    between atoms: _24  and  _25
REMARK   10  A    between atoms: _26  and  _27
REMARK   11  A    between atoms: _28  and  _30
REMARK   12  A    between atoms: _30  and  _31
REMARK   13  A    between atoms: _30  and  _32
REMARK   14  A    between atoms: _32  and  _33
REMARK   15  A    between atoms: _32  and  _34
REMARK   16  A    between atoms: _35  and  _37
REMARK                            x       y       z     vdW  Elec       q    Type
REMARK                         _______ _______ _______ _____ _____    ______ ____
ROOT
ATOM      1  C   UNL     1      -5.686  11.716  29.110  0.00  0.00    +0.163 C 
ENDROOT
BRANCH   1   2
ATOM      2  O   UNL     1      -6.824  11.426  28.281  0.00  0.00    -0.388 OA
ATOM      3  H   UNL     1      -7.371  10.763  28.709  0.00  0.00    +0.210 HD
ENDBRANCH   1   2
BRANCH   1   4
ATOM      4  C   UNL     1      -5.855  13.082  29.767  0.00  0.00    +0.141 C 
BRANCH   4   7
ATOM      5  C   UNL     1      -6.970  14.981  28.646  0.00  0.00    +0.401 C 
ATOM      6  O   UNL     1      -7.990  14.912  29.336  0.00  0.00    -0.226 OA
ATOM      7  N   UNL     1      -5.926  14.162  28.775  0.00  0.00    -0.279 N 
ATOM      8  H   UNL     1      -5.138  14.292  28.155  0.00  0.00    +0.152 HD
BRANCH   5   9
ATOM      9  O   UNL     1      -6.882  15.990  27.637  0.00  0.00    -0.444 OA
BRANCH   9  10
ATOM     10  C   UNL     1      -7.706  15.628  26.525  0.00  0.00    +0.292 C 
BRANCH  10  12
ATOM     11  N   UNL     1      -7.219  13.259  26.034  0.00  0.00    -0.131 NA
ATOM     12  C   UNL     1      -7.053  14.573  25.728  0.00  0.00    +0.121 A 
ATOM     13  C   UNL     1      -6.237  14.674  24.625  0.00  0.00    +0.143 A 
ATOM     14  N   UNL     1      -5.936  13.371  24.267  0.00  0.00    -0.219 N 
ATOM     15  N   UNL     1      -6.537  12.544  25.151  0.00  0.00    -0.060 NA
BRANCH  14  16
ATOM     16  C   UNL     1      -5.152  12.919  23.160  0.00  0.00    +0.081 A 
ATOM     17  C   UNL     1      -5.756  12.897  21.883  0.00  0.00    +0.029 A 
ATOM     18  C   UNL     1      -5.066  12.449  20.754  0.00  0.00    +0.002 A 
ATOM     19  C   UNL     1      -3.755  12.013  20.871  0.00  0.00    +0.001 A 
ATOM     20  C   UNL     1      -3.135  12.033  22.117  0.00  0.00    +0.017 A 
ATOM     21  C   UNL     1      -3.816  12.483  23.265  0.00  0.00    +0.043 A 
ATOM     22 BR   UNL     1      -2.759  12.422  24.849  0.00  0.00    -0.048 Br
ENDBRANCH  14  16
ENDBRANCH  10  12
ENDBRANCH   9  10
ENDBRANCH   5   9
ENDBRANCH   4   7
ENDBRANCH   1   4
BRANCH   1  23
ATOM     23  C   UNL     1      -4.387  11.699  28.286  0.00  0.00    +0.175 C 
BRANCH  23  24
ATOM     24  C   UNL     1      -3.779  10.292  28.195  0.00  0.00    +0.176 C 
ATOM     25  O   UNL     1      -4.677   9.468  27.401  0.00  0.00    -0.332 OA
ATOM     26  C   UNL     1      -4.205   8.109  27.117  0.00  0.00    +0.277 C 
ATOM     27  C   UNL     1      -3.845   7.375  28.432  0.00  0.00    +0.110 C 
ATOM     28  C   UNL     1      -2.917   8.226  29.324  0.00  0.00    +0.143 C 
ATOM     29  C   UNL     1      -3.503   9.620  29.553  0.00  0.00    +0.133 C 
BRANCH  29  30
ATOM     30  N   UNL     1      -2.570  10.450  30.331  0.00  0.00    -0.308 N 
ATOM     31  H   UNL     1      -1.709  10.736  29.885  0.00  0.00    +0.149 HD
ATOM     32  C   UNL     1      -2.786  10.850  31.587  0.00  0.00    +0.210 C 
ATOM     33  C   UNL     1      -4.094  10.375  32.246  0.00  0.00    +0.109 C 
ATOM     34  O   UNL     1      -1.993  11.557  32.209  0.00  0.00    -0.276 OA
ENDBRANCH  29  30
BRANCH  26  35
ATOM     35  C   UNL     1      -2.972   8.141  26.190  0.00  0.00    +0.414 C 
ATOM     36  O   UNL     1      -1.951   7.526  26.495  0.00  0.00    -0.240 OA
ATOM     37  O   UNL     1      -2.998   8.782  25.139  0.00  0.00    -0.240 OA
ENDBRANCH  26  35
BRANCH  28  38
ATOM     38  O   UNL     1      -2.734   7.580  30.584  0.00  0.00    -0.390 OA
ATOM     39  H   UNL     1      -2.265   8.168  31.181  0.00  0.00    +0.210 HD
ENDBRANCH  28  38
BRANCH  26  40
ATOM     40  O   UNL     1      -5.283   7.386  26.470  0.00  0.00    -0.343 OA
ATOM     41  C   UNL     1      -4.993   5.999  26.164  0.00  0.00    +0.198 C 
ENDBRANCH  26  40
ENDBRANCH  23  24
BRANCH  23  42
ATOM     42  O   UNL     1      -3.430  12.618  28.849  0.00  0.00    -0.387 OA
ATOM     43  H   UNL     1      -3.880  13.419  29.128  0.00  0.00    +0.210 HD
ENDBRANCH  23  42
ENDBRANCH   1  23
TORSDOF 14
