REMARK VINA RESULT:    -4.285      2.116      2.799
REMARK INTER + INTRA:         -11.363
REMARK INTER:                  -7.844
REMARK INTRA:                  -3.519
REMARK UNBOUND:                -3.320
REMARK  Name = lig_assembled_16.pdb
REMARK  19 active torsions:
REMARK  status: ('A' for Active; 'I' for Inactive)
REMARK    1  A    between atoms: _2  and  _9
REMARK    2  A    between atoms: _4  and  _22
REMARK    3  A    between atoms: _6  and  _7
REMARK    4  A    between atoms: _6  and  _22
REMARK    5  A    between atoms: _9  and  _10
REMARK    6  A    between atoms: _13  and  _14
REMARK    7  A    between atoms: _14  and  _16
REMARK    8  A    between atoms: _18  and  _38
REMARK    9  A    between atoms: _20  and  _26
REMARK   10  A    between atoms: _21  and  _25
REMARK   11  A    between atoms: _25  and  _26
REMARK   12  A    between atoms: _28  and  _29
REMARK   13  A    between atoms: _30  and  _31
REMARK   14  A    between atoms: _32  and  _34
REMARK   15  A    between atoms: _34  and  _35
REMARK   16  A    between atoms: _34  and  _36
REMARK   17  A    between atoms: _36  and  _37
REMARK   18  A    between atoms: _36  and  _38
REMARK   19  A    between atoms: _39  and  _41
REMARK                            x       y       z     vdW  Elec       q    Type
REMARK                         _______ _______ _______ _____ _____    ______ ____
ROOT
ATOM      1  C   UNL     1      -8.437   9.955  23.757  0.00  0.00    +0.163 C 
ENDROOT
BRANCH   1   2
ATOM      2  O   UNL     1      -8.097  10.348  25.097  0.00  0.00    -0.388 OA
ATOM      3  H   UNL     1      -8.883  10.669  25.546  0.00  0.00    +0.210 HD
ENDBRANCH   1   2
BRANCH   1   4
ATOM      4  C   UNL     1      -7.617  10.750  22.726  0.00  0.00    +0.175 C 
BRANCH   4   5
ATOM      5  C   UNL     1      -6.269  11.218  23.296  0.00  0.00    +0.176 C 
ATOM      6  O   UNL     1      -6.512  12.404  24.101  0.00  0.00    -0.332 OA
ATOM      7  C   UNL     1      -5.347  12.934  24.816  0.00  0.00    +0.277 C 
ATOM      8  C   UNL     1      -4.182  13.200  23.831  0.00  0.00    +0.110 C 
ATOM      9  C   UNL     1      -3.908  11.977  22.930  0.00  0.00    +0.143 C 
ATOM     10  C   UNL     1      -5.188  11.507  22.238  0.00  0.00    +0.133 C 
BRANCH  10  11
ATOM     11  N   UNL     1      -4.932  10.290  21.452  0.00  0.00    -0.308 N 
ATOM     12  H   UNL     1      -4.642   9.459  21.950  0.00  0.00    +0.149 HD
ATOM     13  C   UNL     1      -5.056  10.210  20.125  0.00  0.00    +0.210 C 
ATOM     14  C   UNL     1      -5.474  11.500  19.393  0.00  0.00    +0.109 C 
ATOM     15  O   UNL     1      -4.849   9.173  19.494  0.00  0.00    -0.276 OA
ENDBRANCH  10  11
BRANCH   7  16
ATOM     16  C   UNL     1      -4.882  11.951  25.910  0.00  0.00    +0.414 C 
ATOM     17  O   UNL     1      -5.694  11.209  26.462  0.00  0.00    -0.240 OA
ATOM     18  O   UNL     1      -3.697  11.900  26.241  0.00  0.00    -0.240 OA
ENDBRANCH   7  16
BRANCH   7  19
ATOM     19  O   UNL     1      -5.729  14.196  25.423  0.00  0.00    -0.343 OA
ATOM     20  C   UNL     1      -7.017  14.712  25.004  0.00  0.00    +0.198 C 
ENDBRANCH   7  19
BRANCH   9  21
ATOM     21  O   UNL     1      -2.935  12.315  21.941  0.00  0.00    -0.390 OA
ATOM     22  H   UNL     1      -2.851  13.270  21.888  0.00  0.00    +0.210 HD
ENDBRANCH   9  21
ENDBRANCH   4   5
BRANCH   4  23
ATOM     23  O   UNL     1      -8.376  11.881  22.254  0.00  0.00    -0.387 OA
ATOM     24  H   UNL     1      -7.864  12.684  22.375  0.00  0.00    +0.210 HD
ENDBRANCH   4  23
ENDBRANCH   1   4
BRANCH   1  25
ATOM     25  C   UNL     1      -8.181   8.463  23.571  0.00  0.00    +0.141 C 
BRANCH  25  28
ATOM     26  C   UNL     1      -5.863   7.620  23.716  0.00  0.00    +0.401 C 
ATOM     27  O   UNL     1      -5.702   7.578  22.494  0.00  0.00    -0.226 OA
ATOM     28  N   UNL     1      -6.992   8.016  24.306  0.00  0.00    -0.279 N 
ATOM     29  H   UNL     1      -7.031   8.007  25.315  0.00  0.00    +0.152 HD
BRANCH  26  30
ATOM     30  O   UNL     1      -4.789   7.222  24.572  0.00  0.00    -0.444 OA
BRANCH  30  31
ATOM     31  C   UNL     1      -3.912   8.331  24.786  0.00  0.00    +0.292 C 
BRANCH  31  33
ATOM     32  N   UNL     1      -2.080   8.551  26.439  0.00  0.00    -0.131 NA
ATOM     33  C   UNL     1      -3.405   8.322  26.170  0.00  0.00    +0.120 A 
ATOM     34  C   UNL     1      -4.080   8.134  27.355  0.00  0.00    +0.137 A 
ATOM     35  N   UNL     1      -3.130   8.355  28.307  0.00  0.00    -0.247 N 
ATOM     36  N   UNL     1      -1.919   8.552  27.756  0.00  0.00    -0.065 NA
BRANCH  35  37
ATOM     37  C   UNL     1      -3.307   8.416  29.744  0.00  0.00    +0.180 C 
BRANCH  37  38
ATOM     38  C   UNL     1      -3.275   9.844  30.241  0.00  0.00    -0.026 A 
ATOM     39  C   UNL     1      -2.677  10.161  31.469  0.00  0.00    +0.006 A 
ATOM     40  C   UNL     1      -2.617  11.487  31.906  0.00  0.00    +0.015 A 
ATOM     41  C   UNL     1      -3.163  12.512  31.130  0.00  0.00    +0.059 A 
ATOM     42  C   UNL     1      -3.784  12.205  29.910  0.00  0.00    +0.015 A 
ATOM     43  C   UNL     1      -3.848  10.876  29.479  0.00  0.00    +0.006 A 
BRANCH  41  44
ATOM     44  C   UNL     1      -3.007  13.912  31.607  0.00  0.00    +0.337 C 
ATOM     45  O   UNL     1      -3.885  14.750  31.482  0.00  0.00    -0.245 OA
BRANCH  44  46
ATOM     46  O   UNL     1      -1.805  14.178  32.153  0.00  0.00    -0.477 OA
ATOM     47  H   UNL     1      -1.828  14.704  32.972  0.00  0.00    +0.295 HD
ENDBRANCH  44  46
ENDBRANCH  41  44
ENDBRANCH  37  38
ENDBRANCH  35  37
ENDBRANCH  31  33
ENDBRANCH  30  31
ENDBRANCH  26  30
ENDBRANCH  25  28
ENDBRANCH   1  25
TORSDOF 17
