REMARK VINA RESULT:    -4.718      7.526     12.548
REMARK INTER + INTRA:         -11.285
REMARK INTER:                  -7.704
REMARK INTRA:                  -3.581
REMARK UNBOUND:                -2.844
REMARK  Name = lig_assembled_44.pdb
REMARK  17 active torsions:
REMARK  status: ('A' for Active; 'I' for Inactive)
REMARK    1  A    between atoms: _2  and  _9
REMARK    2  A    between atoms: _4  and  _19
REMARK    3  A    between atoms: _6  and  _7
REMARK    4  A    between atoms: _6  and  _19
REMARK    5  A    between atoms: _9  and  _10
REMARK    6  A    between atoms: _15  and  _35
REMARK    7  A    between atoms: _17  and  _23
REMARK    8  A    between atoms: _18  and  _22
REMARK    9  A    between atoms: _22  and  _23
REMARK   10  A    between atoms: _25  and  _26
REMARK   11  A    between atoms: _27  and  _28
REMARK   12  A    between atoms: _29  and  _31
REMARK   13  A    between atoms: _31  and  _32
REMARK   14  A    between atoms: _31  and  _33
REMARK   15  A    between atoms: _33  and  _34
REMARK   16  A    between atoms: _33  and  _35
REMARK   17  A    between atoms: _36  and  _38
REMARK                            x       y       z     vdW  Elec       q    Type
REMARK                         _______ _______ _______ _____ _____    ______ ____
ROOT
ATOM      1  C   UNL     1      -3.033  11.688  26.106  0.00  0.00    +0.163 C 
ENDROOT
BRANCH   1   2
ATOM      2  O   UNL     1      -1.985  12.279  25.320  0.00  0.00    -0.388 OA
ATOM      3  H   UNL     1      -1.174  12.301  25.832  0.00  0.00    +0.210 HD
ENDBRANCH   1   2
BRANCH   1   4
ATOM      4  C   UNL     1      -2.460  10.594  27.000  0.00  0.00    +0.141 C 
BRANCH   4   7
ATOM      5  C   UNL     1      -3.642   9.848  29.038  0.00  0.00    +0.401 C 
ATOM      6  O   UNL     1      -4.060   8.806  28.528  0.00  0.00    -0.226 OA
ATOM      7  N   UNL     1      -2.893  10.745  28.395  0.00  0.00    -0.279 N 
ATOM      8  H   UNL     1      -2.606  11.574  28.896  0.00  0.00    +0.152 HD
BRANCH   5   9
ATOM      9  O   UNL     1      -3.973  10.136  30.399  0.00  0.00    -0.444 OA
BRANCH   9  10
ATOM     10  C   UNL     1      -2.782  10.462  31.121  0.00  0.00    +0.292 C 
BRANCH  10  12
ATOM     11  N   UNL     1      -1.864  12.440  32.299  0.00  0.00    -0.131 NA
ATOM     12  C   UNL     1      -2.948  11.742  31.836  0.00  0.00    +0.120 A 
ATOM     13  C   UNL     1      -4.094  12.438  32.140  0.00  0.00    +0.137 A 
ATOM     14  N   UNL     1      -3.638  13.587  32.716  0.00  0.00    -0.247 N 
ATOM     15  N   UNL     1      -2.299  13.567  32.848  0.00  0.00    -0.065 NA
BRANCH  14  16
ATOM     16  C   UNL     1      -4.405  14.734  33.162  0.00  0.00    +0.180 C 
BRANCH  16  17
ATOM     17  C   UNL     1      -5.011  15.479  31.997  0.00  0.00    -0.026 A 
ATOM     18  C   UNL     1      -6.364  15.307  31.663  0.00  0.00    +0.006 A 
ATOM     19  C   UNL     1      -6.918  15.986  30.575  0.00  0.00    +0.015 A 
ATOM     20  C   UNL     1      -6.122  16.841  29.815  0.00  0.00    +0.018 A 
ATOM     21 BR   UNL     1      -6.879  17.772  28.354  0.00  0.00    -0.050 Br
ATOM     22  C   UNL     1      -4.776  17.015  30.124  0.00  0.00    +0.015 A 
ATOM     23  C   UNL     1      -4.219  16.331  31.210  0.00  0.00    +0.006 A 
ENDBRANCH  16  17
ENDBRANCH  14  16
ENDBRANCH  10  12
ENDBRANCH   9  10
ENDBRANCH   5   9
ENDBRANCH   4   7
ENDBRANCH   1   4
BRANCH   1  24
ATOM     24  C   UNL     1      -4.128  11.093  25.204  0.00  0.00    +0.175 C 
BRANCH  24  25
ATOM     25  C   UNL     1      -5.108  12.163  24.701  0.00  0.00    +0.176 C 
ATOM     26  O   UNL     1      -4.400  13.008  23.753  0.00  0.00    -0.332 OA
ATOM     27  C   UNL     1      -5.211  14.030  23.085  0.00  0.00    +0.277 C 
ATOM     28  C   UNL     1      -5.939  14.911  24.130  0.00  0.00    +0.110 C 
ATOM     29  C   UNL     1      -6.681  14.056  25.178  0.00  0.00    +0.143 C 
ATOM     30  C   UNL     1      -5.744  13.024  25.808  0.00  0.00    +0.133 C 
BRANCH  30  31
ATOM     31  N   UNL     1      -6.482  12.159  26.741  0.00  0.00    -0.308 N 
ATOM     32  H   UNL     1      -7.138  11.496  26.351  0.00  0.00    +0.149 HD
ATOM     33  C   UNL     1      -6.343  12.192  28.069  0.00  0.00    +0.210 C 
ATOM     34  C   UNL     1      -5.355  13.231  28.633  0.00  0.00    +0.109 C 
ATOM     35  O   UNL     1      -6.964  11.445  28.826  0.00  0.00    -0.276 OA
ENDBRANCH  30  31
BRANCH  27  36
ATOM     36  C   UNL     1      -6.249  13.377  22.148  0.00  0.00    +0.414 C 
ATOM     37  O   UNL     1      -7.387  13.838  22.066  0.00  0.00    -0.240 OA
ATOM     38  O   UNL     1      -5.948  12.391  21.474  0.00  0.00    -0.240 OA
ENDBRANCH  27  36
BRANCH  27  39
ATOM     39  O   UNL     1      -4.321  14.876  22.313  0.00  0.00    -0.343 OA
ATOM     40  C   UNL     1      -4.739  16.260  22.197  0.00  0.00    +0.198 C 
ENDBRANCH  27  39
BRANCH  29  41
ATOM     41  O   UNL     1      -7.209  14.900  26.202  0.00  0.00    -0.390 OA
ATOM     42  H   UNL     1      -6.666  15.688  26.280  0.00  0.00    +0.210 HD
ENDBRANCH  29  41
ENDBRANCH  24  25
BRANCH  24  43
ATOM     43  O   UNL     1      -4.842  10.056  25.907  0.00  0.00    -0.387 OA
ATOM     44  H   UNL     1      -4.434   9.206  25.725  0.00  0.00    +0.210 HD
ENDBRANCH  24  43
ENDBRANCH   1  24
TORSDOF 15
