REMARK VINA RESULT:    -4.769      4.899      7.877
REMARK INTER + INTRA:         -11.436
REMARK INTER:                  -8.706
REMARK INTRA:                  -2.730
REMARK UNBOUND:                -2.903
REMARK  Name = lig_assembled_69.pdb
REMARK  18 active torsions:
REMARK  status: ('A' for Active; 'I' for Inactive)
REMARK    1  A    between atoms: _2  and  _9
REMARK    2  A    between atoms: _4  and  _21
REMARK    3  A    between atoms: _6  and  _7
REMARK    4  A    between atoms: _6  and  _21
REMARK    5  A    between atoms: _11  and  _16
REMARK    6  A    between atoms: _14  and  _15
REMARK    7  A    between atoms: _17  and  _37
REMARK    8  A    between atoms: _19  and  _25
REMARK    9  A    between atoms: _20  and  _24
REMARK   10  A    between atoms: _24  and  _25
REMARK   11  A    between atoms: _27  and  _28
REMARK   12  A    between atoms: _29  and  _30
REMARK   13  A    between atoms: _31  and  _33
REMARK   14  A    between atoms: _33  and  _34
REMARK   15  A    between atoms: _33  and  _35
REMARK   16  A    between atoms: _35  and  _36
REMARK   17  A    between atoms: _35  and  _37
REMARK   18  A    between atoms: _38  and  _40
REMARK                            x       y       z     vdW  Elec       q    Type
REMARK                         _______ _______ _______ _____ _____    ______ ____
ROOT
ATOM      1  C   UNL     1      -5.338   7.395  24.128  0.00  0.00    +0.163 C 
ENDROOT
BRANCH   1   2
ATOM      2  O   UNL     1      -4.168   6.792  24.704  0.00  0.00    -0.388 OA
ATOM      3  H   UNL     1      -3.828   7.356  25.403  0.00  0.00    +0.210 HD
ENDBRANCH   1   2
BRANCH   1   4
ATOM      4  C   UNL     1      -4.997   8.749  23.482  0.00  0.00    +0.175 C 
BRANCH   4   5
ATOM      5  C   UNL     1      -3.918   9.509  24.268  0.00  0.00    +0.176 C 
ATOM      6  O   UNL     1      -4.271   9.456  25.678  0.00  0.00    -0.332 OA
ATOM      7  C   UNL     1      -3.293  10.043  26.598  0.00  0.00    +0.277 C 
ATOM      8  C   UNL     1      -2.977  11.503  26.192  0.00  0.00    +0.110 C 
ATOM      9  C   UNL     1      -2.626  11.615  24.693  0.00  0.00    +0.143 C 
ATOM     10  C   UNL     1      -3.709  10.970  23.828  0.00  0.00    +0.133 C 
BRANCH  10  11
ATOM     11  N   UNL     1      -3.323  11.005  22.408  0.00  0.00    -0.308 N 
ATOM     12  H   UNL     1      -2.542  10.433  22.118  0.00  0.00    +0.149 HD
ATOM     13  C   UNL     1      -3.936  11.743  21.479  0.00  0.00    +0.210 C 
ATOM     14  C   UNL     1      -5.106  12.623  21.959  0.00  0.00    +0.109 C 
ATOM     15  O   UNL     1      -3.600  11.741  20.295  0.00  0.00    -0.276 OA
ENDBRANCH  10  11
BRANCH   7  16
ATOM     16  C   UNL     1      -1.990   9.218  26.611  0.00  0.00    +0.414 C 
ATOM     17  O   UNL     1      -2.031   7.991  26.517  0.00  0.00    -0.240 OA
ATOM     18  O   UNL     1      -0.897   9.777  26.716  0.00  0.00    -0.240 OA
ENDBRANCH   7  16
BRANCH   7  19
ATOM     19  O   UNL     1      -3.877  10.054  27.926  0.00  0.00    -0.343 OA
ATOM     20  C   UNL     1      -4.990   9.143  28.113  0.00  0.00    +0.198 C 
ENDBRANCH   7  19
BRANCH   9  21
ATOM     21  O   UNL     1      -2.491  12.989  24.331  0.00  0.00    -0.390 OA
ATOM     22  H   UNL     1      -1.905  13.065  23.574  0.00  0.00    +0.210 HD
ENDBRANCH   9  21
ENDBRANCH   4   5
BRANCH   4  23
ATOM     23  O   UNL     1      -6.186   9.556  23.364  0.00  0.00    -0.387 OA
ATOM     24  H   UNL     1      -6.602   9.391  22.514  0.00  0.00    +0.210 HD
ENDBRANCH   4  23
ENDBRANCH   1   4
BRANCH   1  25
ATOM     25  C   UNL     1      -5.940   6.467  23.078  0.00  0.00    +0.141 C 
BRANCH  25  28
ATOM     26  C   UNL     1      -7.123   6.732  20.924  0.00  0.00    +0.401 C 
ATOM     27  O   UNL     1      -7.740   5.669  21.025  0.00  0.00    -0.226 OA
ATOM     28  N   UNL     1      -6.256   7.180  21.834  0.00  0.00    -0.279 N 
ATOM     29  H   UNL     1      -5.792   8.059  21.658  0.00  0.00    +0.152 HD
BRANCH  26  30
ATOM     30  O   UNL     1      -7.329   7.548  19.769  0.00  0.00    -0.444 OA
BRANCH  30  31
ATOM     31  C   UNL     1      -6.765   8.843  19.991  0.00  0.00    +0.292 C 
BRANCH  31  33
ATOM     32  N   UNL     1      -4.966   8.302  18.385  0.00  0.00    -0.131 NA
ATOM     33  C   UNL     1      -5.863   9.208  18.884  0.00  0.00    +0.120 A 
ATOM     34  C   UNL     1      -5.733  10.396  18.198  0.00  0.00    +0.137 A 
ATOM     35  N   UNL     1      -4.732  10.151  17.305  0.00  0.00    -0.248 N 
ATOM     36  N   UNL     1      -4.275   8.893  17.422  0.00  0.00    -0.065 NA
BRANCH  35  37
ATOM     37  C   UNL     1      -4.128  11.081  16.352  0.00  0.00    +0.114 C 
ATOM     38  C   UNL     1      -5.003  12.323  16.146  0.00  0.00    +0.062 C 
ATOM     39  C   UNL     1      -6.127  12.196  15.116  0.00  0.00    +0.139 C 
ATOM     40  C   UNL     1      -5.708  12.120  13.675  0.00  0.00    +0.002 C 
ATOM     41  C   UNL     1      -4.519  11.762  13.164  0.00  0.00    +0.002 C 
ATOM     42  C   UNL     1      -3.338  11.201  13.895  0.00  0.00    +0.139 C 
ATOM     43  C   UNL     1      -3.692  10.323  15.090  0.00  0.00    +0.062 C 
BRANCH  39  44
ATOM     44  O   UNL     1      -6.926  13.381  15.220  0.00  0.00    -0.388 OA
ATOM     45  H   UNL     1      -6.567  13.910  15.952  0.00  0.00    +0.210 HD
ENDBRANCH  39  44
BRANCH  42  46
ATOM     46  O   UNL     1      -2.484  12.262  14.294  0.00  0.00    -0.388 OA
ATOM     47  H   UNL     1      -1.671  11.862  14.647  0.00  0.00    +0.210 HD
ENDBRANCH  42  46
ENDBRANCH  35  37
ENDBRANCH  31  33
ENDBRANCH  30  31
ENDBRANCH  26  30
ENDBRANCH  25  28
ENDBRANCH   1  25
TORSDOF 16
