REMARK VINA RESULT:    -4.669      2.463      5.016
REMARK INTER + INTRA:         -11.225
REMARK INTER:                  -7.912
REMARK INTRA:                  -3.313
REMARK UNBOUND:                -2.598
REMARK  Name = lig_assembled_67.pdb
REMARK  18 active torsions:
REMARK  status: ('A' for Active; 'I' for Inactive)
REMARK    1  A    between atoms: _2  and  _9
REMARK    2  A    between atoms: _4  and  _19
REMARK    3  A    between atoms: _6  and  _7
REMARK    4  A    between atoms: _6  and  _19
REMARK    5  A    between atoms: _9  and  _10
REMARK    6  A    between atoms: _10  and  _11
REMARK    7  A    between atoms: _15  and  _35
REMARK    8  A    between atoms: _17  and  _23
REMARK    9  A    between atoms: _18  and  _22
REMARK   10  A    between atoms: _22  and  _23
REMARK   11  A    between atoms: _25  and  _26
REMARK   12  A    between atoms: _27  and  _28
REMARK   13  A    between atoms: _29  and  _31
REMARK   14  A    between atoms: _31  and  _32
REMARK   15  A    between atoms: _31  and  _33
REMARK   16  A    between atoms: _33  and  _34
REMARK   17  A    between atoms: _33  and  _35
REMARK   18  A    between atoms: _36  and  _38
REMARK                            x       y       z     vdW  Elec       q    Type
REMARK                         _______ _______ _______ _____ _____    ______ ____
ROOT
ATOM      1  C   UNL     1      -2.952  11.677  23.866  0.00  0.00    +0.163 C 
ENDROOT
BRANCH   1   2
ATOM      2  O   UNL     1      -2.275  11.591  25.131  0.00  0.00    -0.388 OA
ATOM      3  H   UNL     1      -1.442  12.065  25.082  0.00  0.00    +0.210 HD
ENDBRANCH   1   2
BRANCH   1   4
ATOM      4  C   UNL     1      -3.829  10.437  23.625  0.00  0.00    +0.175 C 
BRANCH   4   5
ATOM      5  C   UNL     1      -4.095   9.656  24.921  0.00  0.00    +0.176 C 
ATOM      6  O   UNL     1      -2.898   8.893  25.237  0.00  0.00    -0.332 OA
ATOM      7  C   UNL     1      -2.930   8.163  26.508  0.00  0.00    +0.277 C 
ATOM      8  C   UNL     1      -4.171   7.239  26.570  0.00  0.00    +0.110 C 
ATOM      9  C   UNL     1      -5.465   7.999  26.210  0.00  0.00    +0.143 C 
ATOM     10  C   UNL     1      -5.320   8.725  24.872  0.00  0.00    +0.133 C 
BRANCH  10  11
ATOM     11  N   UNL     1      -6.527   9.516  24.582  0.00  0.00    -0.308 N 
ATOM     12  H   UNL     1      -6.778  10.249  25.230  0.00  0.00    +0.149 HD
ATOM     13  C   UNL     1      -7.312   9.327  23.518  0.00  0.00    +0.210 C 
ATOM     14  C   UNL     1      -6.918   8.185  22.563  0.00  0.00    +0.109 C 
ATOM     15  O   UNL     1      -8.309  10.015  23.293  0.00  0.00    -0.276 OA
ENDBRANCH  10  11
BRANCH   7  16
ATOM     16  C   UNL     1      -2.954   9.141  27.701  0.00  0.00    +0.414 C 
ATOM     17  O   UNL     1      -3.771   8.991  28.608  0.00  0.00    -0.240 OA
ATOM     18  O   UNL     1      -2.157  10.078  27.756  0.00  0.00    -0.240 OA
ENDBRANCH   7  16
BRANCH   9  19
ATOM     19  O   UNL     1      -6.557   7.082  26.133  0.00  0.00    -0.390 OA
ATOM     20  H   UNL     1      -7.344   7.489  26.501  0.00  0.00    +0.210 HD
ENDBRANCH   9  19
BRANCH   7  21
ATOM     21  O   UNL     1      -1.740   7.335  26.579  0.00  0.00    -0.343 OA
ATOM     22  C   UNL     1      -1.977   5.910  26.451  0.00  0.00    +0.198 C 
ENDBRANCH   7  21
ENDBRANCH   4   5
BRANCH   4  23
ATOM     23  O   UNL     1      -3.214   9.577  22.645  0.00  0.00    -0.387 OA
ATOM     24  H   UNL     1      -3.851   8.923  22.348  0.00  0.00    +0.210 HD
ENDBRANCH   4  23
ENDBRANCH   1   4
BRANCH   1  25
ATOM     25  C   UNL     1      -3.820  12.931  23.824  0.00  0.00    +0.141 C 
BRANCH  25  28
ATOM     26  C   UNL     1      -5.774  13.005  25.333  0.00  0.00    +0.401 C 
ATOM     27  O   UNL     1      -6.569  12.610  24.477  0.00  0.00    -0.226 OA
ATOM     28  N   UNL     1      -4.472  13.189  25.113  0.00  0.00    -0.279 N 
ATOM     29  H   UNL     1      -3.902  13.525  25.877  0.00  0.00    +0.152 HD
BRANCH  26  30
ATOM     30  O   UNL     1      -6.257  13.293  26.648  0.00  0.00    -0.444 OA
BRANCH  30  31
ATOM     31  C   UNL     1      -5.726  12.338  27.571  0.00  0.00    +0.292 C 
BRANCH  31  33
ATOM     32  N   UNL     1      -5.775  14.032  29.376  0.00  0.00    -0.131 NA
ATOM     33  C   UNL     1      -5.112  13.023  28.725  0.00  0.00    +0.120 A 
ATOM     34  C   UNL     1      -3.891  12.827  29.327  0.00  0.00    +0.137 A 
ATOM     35  N   UNL     1      -3.868  13.745  30.332  0.00  0.00    -0.251 N 
ATOM     36  N   UNL     1      -4.999  14.469  30.358  0.00  0.00    -0.065 NA
BRANCH  35  37
ATOM     37  C   UNL     1      -2.825  13.983  31.305  0.00  0.00    +0.150 C 
BRANCH  37  38
ATOM     38  C   UNL     1      -3.231  13.635  32.735  0.00  0.00    +0.084 C 
BRANCH  38  39
ATOM     39  C   UNL     1      -3.063  12.154  33.043  0.00  0.00    +0.252 C 
ATOM     40  O   UNL     1      -4.299  11.462  32.832  0.00  0.00    -0.349 OA
ATOM     41  C   UNL     1      -3.877  10.149  32.468  0.00  0.00    +0.191 C 
ATOM     42  C   UNL     1      -2.634  10.397  31.654  0.00  0.00    +0.191 C 
ATOM     43  O   UNL     1      -2.054  11.580  32.206  0.00  0.00    -0.349 OA
ENDBRANCH  38  39
ENDBRANCH  37  38
ENDBRANCH  35  37
ENDBRANCH  31  33
ENDBRANCH  30  31
ENDBRANCH  26  30
ENDBRANCH  25  28
ENDBRANCH   1  25
TORSDOF 16
