REMARK VINA RESULT:    -5.299      2.089      4.694
REMARK INTER + INTRA:         -14.363
REMARK INTER:                  -9.011
REMARK INTRA:                  -5.352
REMARK UNBOUND:                -3.487
REMARK  Name = lig_assembled_90.pdb
REMARK  22 active torsions:
REMARK  status: ('A' for Active; 'I' for Inactive)
REMARK    1  A    between atoms: _2  and  _13
REMARK    2  A    between atoms: _3  and  _15
REMARK    3  A    between atoms: _4  and  _17
REMARK    4  A    between atoms: _8  and  _28
REMARK    5  A    between atoms: _10  and  _11
REMARK    6  A    between atoms: _10  and  _28
REMARK    7  A    between atoms: _13  and  _14
REMARK    8  A    between atoms: _15  and  _16
REMARK    9  A    between atoms: _16  and  _17
REMARK   10  A    between atoms: _16  and  _22
REMARK   11  A    between atoms: _24  and  _44
REMARK   12  A    between atoms: _26  and  _32
REMARK   13  A    between atoms: _27  and  _31
REMARK   14  A    between atoms: _31  and  _32
REMARK   15  A    between atoms: _34  and  _35
REMARK   16  A    between atoms: _36  and  _37
REMARK   17  A    between atoms: _38  and  _40
REMARK   18  A    between atoms: _40  and  _41
REMARK   19  A    between atoms: _40  and  _42
REMARK   20  A    between atoms: _42  and  _43
REMARK   21  A    between atoms: _42  and  _44
REMARK   22  A    between atoms: _45  and  _47
REMARK                            x       y       z     vdW  Elec       q    Type
REMARK                         _______ _______ _______ _____ _____    ______ ____
ROOT
ATOM      1  C   UNL     1      -2.969  12.741  24.638  0.00  0.00    +0.401 C 
ATOM      2  O   UNL     1      -3.832  13.249  25.357  0.00  0.00    -0.226 OA
ATOM      3  N   UNL     1      -2.800  13.040  23.350  0.00  0.00    -0.279 N 
ATOM      4  H   UNL     1      -2.057  12.577  22.846  0.00  0.00    +0.152 HD
ENDROOT
BRANCH   3   5
ATOM      5  C   UNL     1      -3.634  14.005  22.623  0.00  0.00    +0.141 C 
BRANCH   5   6
ATOM      6  C   UNL     1      -4.552  13.319  21.616  0.00  0.00    +0.163 C 
BRANCH   6   7
ATOM      7  O   UNL     1      -3.928  12.125  21.116  0.00  0.00    -0.388 OA
ATOM      8  H   UNL     1      -4.581  11.589  20.659  0.00  0.00    +0.210 HD
ENDBRANCH   6   7
BRANCH   6   9
ATOM      9  C   UNL     1      -5.899  12.997  22.286  0.00  0.00    +0.175 C 
BRANCH   9  10
ATOM     10  C   UNL     1      -5.922  11.584  22.888  0.00  0.00    +0.176 C 
ATOM     11  O   UNL     1      -6.264  10.651  21.827  0.00  0.00    -0.332 OA
ATOM     12  C   UNL     1      -6.230   9.232  22.194  0.00  0.00    +0.277 C 
ATOM     13  C   UNL     1      -7.127   8.972  23.429  0.00  0.00    +0.110 C 
ATOM     14  C   UNL     1      -6.821   9.961  24.574  0.00  0.00    +0.143 C 
ATOM     15  C   UNL     1      -6.881  11.407  24.080  0.00  0.00    +0.133 C 
BRANCH  15  16
ATOM     16  N   UNL     1      -6.503  12.335  25.157  0.00  0.00    -0.308 N 
ATOM     17  H   UNL     1      -5.607  12.200  25.603  0.00  0.00    +0.149 HD
ATOM     18  C   UNL     1      -7.268  13.345  25.583  0.00  0.00    +0.210 C 
ATOM     19  C   UNL     1      -8.638  13.508  24.900  0.00  0.00    +0.109 C 
ATOM     20  O   UNL     1      -6.919  14.116  26.478  0.00  0.00    -0.276 OA
ENDBRANCH  15  16
BRANCH  12  21
ATOM     21  C   UNL     1      -4.787   8.781  22.501  0.00  0.00    +0.414 C 
ATOM     22  O   UNL     1      -3.841   9.258  21.874  0.00  0.00    -0.240 OA
ATOM     23  O   UNL     1      -4.568   7.941  23.374  0.00  0.00    -0.240 OA
ENDBRANCH  12  21
BRANCH  14  24
ATOM     24  O   UNL     1      -7.768   9.785  25.628  0.00  0.00    -0.390 OA
ATOM     25  H   UNL     1      -7.362   9.291  26.345  0.00  0.00    +0.210 HD
ENDBRANCH  14  24
BRANCH  12  26
ATOM     26  O   UNL     1      -6.754   8.467  21.079  0.00  0.00    -0.343 OA
ATOM     27  C   UNL     1      -7.571   9.221  20.149  0.00  0.00    +0.198 C 
ENDBRANCH  12  26
ENDBRANCH   9  10
BRANCH   9  28
ATOM     28  O   UNL     1      -6.974  13.150  21.338  0.00  0.00    -0.387 OA
ATOM     29  H   UNL     1      -7.647  12.486  21.507  0.00  0.00    +0.210 HD
ENDBRANCH   9  28
ENDBRANCH   6   9
ENDBRANCH   5   6
ENDBRANCH   3   5
BRANCH   1  30
ATOM     30  O   UNL     1      -2.080  11.772  25.200  0.00  0.00    -0.444 OA
BRANCH  30  31
ATOM     31  C   UNL     1      -2.615  10.461  25.002  0.00  0.00    +0.292 C 
BRANCH  31  33
ATOM     32  N   UNL     1      -1.218   9.818  26.948  0.00  0.00    -0.131 NA
ATOM     33  C   UNL     1      -2.325   9.604  26.168  0.00  0.00    +0.120 A 
ATOM     34  C   UNL     1      -3.022   8.526  26.666  0.00  0.00    +0.137 A 
ATOM     35  N   UNL     1      -2.303   8.144  27.758  0.00  0.00    -0.242 N 
ATOM     36  N   UNL     1      -1.209   8.909  27.915  0.00  0.00    -0.065 NA
BRANCH  35  37
ATOM     37  C   UNL     1      -2.529   7.013  28.625  0.00  0.00    +0.240 C 
BRANCH  37  38
ATOM     38  C   UNL     1      -2.629   7.439  30.072  0.00  0.00    +0.235 C 
ATOM     39  O   UNL     1      -2.203   6.750  30.997  0.00  0.00    -0.274 OA
ATOM     40  N   UNL     1      -3.183   8.688  30.281  0.00  0.00    -0.311 N 
ATOM     41  H   UNL     1      -3.758   9.095  29.547  0.00  0.00    +0.149 HD
BRANCH  40  42
ATOM     42  C   UNL     1      -3.412   9.177  31.634  0.00  0.00    +0.137 C 
BRANCH  42  43
ATOM     43  C   UNL     1      -3.252  10.703  31.707  0.00  0.00    +0.151 C 
BRANCH  43  44
ATOM     44  O   UNL     1      -1.982  11.003  32.301  0.00  0.00    -0.388 OA
ATOM     45  H   UNL     1      -1.369  10.260  32.129  0.00  0.00    +0.210 HD
ENDBRANCH  43  44
BRANCH  43  46
ATOM     46  C   UNL     1      -3.389  11.355  30.325  0.00  0.00    +0.162 C 
BRANCH  46  47
ATOM     47  N   UNL     1      -4.553  12.226  30.234  0.00  0.00    -0.269 N 
ATOM     48  C   UNL     1      -4.681  13.387  30.965  0.00  0.00    +0.113 A 
ATOM     49  C   UNL     1      -5.915  13.898  30.642  0.00  0.00    +0.137 A 
ATOM     50  N   UNL     1      -6.552  13.086  29.739  0.00  0.00    -0.172 NA
ATOM     51  C   UNL     1      -5.707  12.096  29.501  0.00  0.00    +0.450 A 
ATOM     52  N   UNL     1      -6.011  11.026  28.582  0.00  0.00    +0.120 N 
ATOM     53  O   UNL     1      -5.117  10.202  28.342  0.00  0.00    +0.045 OA
ATOM     54  O   UNL     1      -7.152  10.996  28.103  0.00  0.00    -0.573 OA
ENDBRANCH  46  47
ENDBRANCH  43  46
ENDBRANCH  42  43
ENDBRANCH  40  42
ENDBRANCH  37  38
ENDBRANCH  35  37
ENDBRANCH  31  33
ENDBRANCH  30  31
ENDBRANCH   1  30
TORSDOF 20
