REMARK VINA RESULT:    -4.335      2.189      4.598
REMARK INTER + INTRA:         -10.608
REMARK INTER:                  -7.787
REMARK INTRA:                  -2.821
REMARK UNBOUND:                -2.598
REMARK  Name = lig_assembled_67.pdb
REMARK  18 active torsions:
REMARK  status: ('A' for Active; 'I' for Inactive)
REMARK    1  A    between atoms: _2  and  _9
REMARK    2  A    between atoms: _4  and  _19
REMARK    3  A    between atoms: _6  and  _7
REMARK    4  A    between atoms: _6  and  _19
REMARK    5  A    between atoms: _9  and  _10
REMARK    6  A    between atoms: _10  and  _11
REMARK    7  A    between atoms: _15  and  _35
REMARK    8  A    between atoms: _17  and  _23
REMARK    9  A    between atoms: _18  and  _22
REMARK   10  A    between atoms: _22  and  _23
REMARK   11  A    between atoms: _25  and  _26
REMARK   12  A    between atoms: _27  and  _28
REMARK   13  A    between atoms: _29  and  _31
REMARK   14  A    between atoms: _31  and  _32
REMARK   15  A    between atoms: _31  and  _33
REMARK   16  A    between atoms: _33  and  _34
REMARK   17  A    between atoms: _33  and  _35
REMARK   18  A    between atoms: _36  and  _38
REMARK                            x       y       z     vdW  Elec       q    Type
REMARK                         _______ _______ _______ _____ _____    ______ ____
ROOT
ATOM      1  C   UNL     1      -3.002  12.168  25.564  0.00  0.00    +0.163 C 
ENDROOT
BRANCH   1   2
ATOM      2  O   UNL     1      -2.727  12.959  24.395  0.00  0.00    -0.388 OA
ATOM      3  H   UNL     1      -2.167  13.701  24.635  0.00  0.00    +0.210 HD
ENDBRANCH   1   2
BRANCH   1   4
ATOM      4  C   UNL     1      -4.407  11.546  25.489  0.00  0.00    +0.175 C 
BRANCH   4   5
ATOM      5  C   UNL     1      -4.677  10.890  24.127  0.00  0.00    +0.176 C 
ATOM      6  O   UNL     1      -5.212  11.910  23.239  0.00  0.00    -0.332 OA
ATOM      7  C   UNL     1      -5.434  11.489  21.852  0.00  0.00    +0.277 C 
ATOM      8  C   UNL     1      -6.334  10.230  21.806  0.00  0.00    +0.110 C 
ATOM      9  C   UNL     1      -5.822   9.129  22.758  0.00  0.00    +0.143 C 
ATOM     10  C   UNL     1      -5.623   9.676  24.172  0.00  0.00    +0.133 C 
BRANCH  10  11
ATOM     11  N   UNL     1      -5.054   8.642  25.050  0.00  0.00    -0.308 N 
ATOM     12  H   UNL     1      -4.133   8.289  24.828  0.00  0.00    +0.149 HD
ATOM     13  C   UNL     1      -5.673   8.138  26.121  0.00  0.00    +0.210 C 
ATOM     14  C   UNL     1      -7.085   8.678  26.418  0.00  0.00    +0.109 C 
ATOM     15  O   UNL     1      -5.165   7.283  26.847  0.00  0.00    -0.276 OA
ENDBRANCH  10  11
BRANCH   7  16
ATOM     16  C   UNL     1      -4.093  11.191  21.150  0.00  0.00    +0.414 C 
ATOM     17  O   UNL     1      -3.071  11.790  21.484  0.00  0.00    -0.240 OA
ATOM     18  O   UNL     1      -4.032  10.352  20.250  0.00  0.00    -0.240 OA
ENDBRANCH   7  16
BRANCH   9  19
ATOM     19  O   UNL     1      -6.759   8.052  22.798  0.00  0.00    -0.390 OA
ATOM     20  H   UNL     1      -6.385   7.320  23.293  0.00  0.00    +0.210 HD
ENDBRANCH   9  19
BRANCH   7  21
ATOM     21  O   UNL     1      -6.118  12.566  21.161  0.00  0.00    -0.343 OA
ATOM     22  C   UNL     1      -6.091  13.846  21.841  0.00  0.00    +0.198 C 
ENDBRANCH   7  21
ENDBRANCH   4   5
BRANCH   4  23
ATOM     23  O   UNL     1      -5.408  12.545  25.767  0.00  0.00    -0.387 OA
ATOM     24  H   UNL     1      -5.730  12.914  24.942  0.00  0.00    +0.210 HD
ENDBRANCH   4  23
ENDBRANCH   1   4
BRANCH   1  25
ATOM     25  C   UNL     1      -1.961  11.062  25.701  0.00  0.00    +0.141 C 
BRANCH  25  28
ATOM     26  C   UNL     1      -1.968   9.176  27.298  0.00  0.00    +0.401 C 
ATOM     27  O   UNL     1      -2.010   8.310  26.420  0.00  0.00    -0.226 OA
ATOM     28  N   UNL     1      -1.949  10.487  27.052  0.00  0.00    -0.279 N 
ATOM     29  H   UNL     1      -1.924  11.119  27.839  0.00  0.00    +0.152 HD
BRANCH  26  30
ATOM     30  O   UNL     1      -1.943   8.773  28.669  0.00  0.00    -0.444 OA
BRANCH  30  31
ATOM     31  C   UNL     1      -3.247   8.927  29.237  0.00  0.00    +0.292 C 
BRANCH  31  33
ATOM     32  N   UNL     1      -3.779  11.303  29.682  0.00  0.00    -0.131 NA
ATOM     33  C   UNL     1      -3.286  10.103  30.126  0.00  0.00    +0.120 A 
ATOM     34  C   UNL     1      -2.885  10.241  31.436  0.00  0.00    +0.137 A 
ATOM     35  N   UNL     1      -3.157  11.543  31.728  0.00  0.00    -0.251 N 
ATOM     36  N   UNL     1      -3.691  12.179  30.673  0.00  0.00    -0.065 NA
BRANCH  35  37
ATOM     37  C   UNL     1      -2.950  12.242  32.976  0.00  0.00    +0.150 C 
BRANCH  37  38
ATOM     38  C   UNL     1      -2.106  13.507  32.836  0.00  0.00    +0.084 C 
BRANCH  38  39
ATOM     39  C   UNL     1      -2.939  14.777  32.941  0.00  0.00    +0.252 C 
ATOM     40  O   UNL     1      -2.891  15.502  31.707  0.00  0.00    -0.349 OA
ATOM     41  C   UNL     1      -4.145  16.180  31.680  0.00  0.00    +0.191 C 
ATOM     42  C   UNL     1      -5.090  15.187  32.305  0.00  0.00    +0.191 C 
ATOM     43  O   UNL     1      -4.300  14.458  33.247  0.00  0.00    -0.349 OA
ENDBRANCH  38  39
ENDBRANCH  37  38
ENDBRANCH  35  37
ENDBRANCH  31  33
ENDBRANCH  30  31
ENDBRANCH  26  30
ENDBRANCH  25  28
ENDBRANCH   1  25
TORSDOF 16
