REMARK VINA RESULT:    -5.964      5.919     12.483
REMARK INTER + INTRA:         -13.408
REMARK INTER:                 -11.238
REMARK INTRA:                  -2.170
REMARK UNBOUND:                -2.389
REMARK  Name = lig_assembled_92.pdb
REMARK  18 active torsions:
REMARK  status: ('A' for Active; 'I' for Inactive)
REMARK    1  A    between atoms: _2  and  _11
REMARK    2  A    between atoms: _3  and  _46
REMARK    3  A    between atoms: _6  and  _25
REMARK    4  A    between atoms: _8  and  _9
REMARK    5  A    between atoms: _8  and  _25
REMARK    6  A    between atoms: _14  and  _46
REMARK    7  A    between atoms: _21  and  _41
REMARK    8  A    between atoms: _23  and  _29
REMARK    9  A    between atoms: _24  and  _28
REMARK   10  A    between atoms: _28  and  _29
REMARK   11  A    between atoms: _31  and  _32
REMARK   12  A    between atoms: _33  and  _34
REMARK   13  A    between atoms: _35  and  _37
REMARK   14  A    between atoms: _37  and  _38
REMARK   15  A    between atoms: _37  and  _39
REMARK   16  A    between atoms: _39  and  _40
REMARK   17  A    between atoms: _39  and  _41
REMARK   18  A    between atoms: _42  and  _44
REMARK                            x       y       z     vdW  Elec       q    Type
REMARK                         _______ _______ _______ _____ _____    ______ ____
ROOT
ATOM      1  C   UNL     1      -5.014  13.556  23.021  0.00  0.00    +0.401 C 
ATOM      2  O   UNL     1      -5.695  13.867  24.001  0.00  0.00    -0.226 OA
ATOM      3  N   UNL     1      -3.743  13.159  23.092  0.00  0.00    -0.279 N 
ATOM      4  H   UNL     1      -3.270  12.916  22.233  0.00  0.00    +0.152 HD
ENDROOT
BRANCH   3   5
ATOM      5  C   UNL     1      -2.991  13.056  24.349  0.00  0.00    +0.141 C 
BRANCH   5   6
ATOM      6  C   UNL     1      -3.292  11.756  25.087  0.00  0.00    +0.163 C 
BRANCH   6   7
ATOM      7  O   UNL     1      -2.183  10.852  24.963  0.00  0.00    -0.388 OA
ATOM      8  H   UNL     1      -1.852  10.628  25.836  0.00  0.00    +0.210 HD
ENDBRANCH   6   7
BRANCH   6   9
ATOM      9  C   UNL     1      -3.590  12.062  26.566  0.00  0.00    +0.175 C 
BRANCH   9  10
ATOM     10  C   UNL     1      -3.333  10.847  27.470  0.00  0.00    +0.176 C 
ATOM     11  O   UNL     1      -3.949   9.687  26.846  0.00  0.00    -0.332 OA
ATOM     12  C   UNL     1      -3.715   8.406  27.519  0.00  0.00    +0.277 C 
ATOM     13  C   UNL     1      -4.142   8.490  29.005  0.00  0.00    +0.110 C 
ATOM     14  C   UNL     1      -3.537   9.726  29.703  0.00  0.00    +0.143 C 
ATOM     15  C   UNL     1      -3.838  11.002  28.916  0.00  0.00    +0.133 C 
BRANCH  15  16
ATOM     16  N   UNL     1      -3.183  12.161  29.544  0.00  0.00    -0.308 N 
ATOM     17  H   UNL     1      -2.173  12.191  29.540  0.00  0.00    +0.149 HD
ATOM     18  C   UNL     1      -3.836  13.175  30.118  0.00  0.00    +0.210 C 
ATOM     19  C   UNL     1      -5.374  13.086  30.130  0.00  0.00    +0.109 C 
ATOM     20  O   UNL     1      -3.261  14.140  30.623  0.00  0.00    -0.276 OA
ENDBRANCH  15  16
BRANCH  12  21
ATOM     21  C   UNL     1      -2.227   8.006  27.432  0.00  0.00    +0.414 C 
ATOM     22  O   UNL     1      -1.669   7.928  26.338  0.00  0.00    -0.240 OA
ATOM     23  O   UNL     1      -1.586   7.762  28.455  0.00  0.00    -0.240 OA
ENDBRANCH  12  21
BRANCH  14  24
ATOM     24  O   UNL     1      -4.075   9.847  31.020  0.00  0.00    -0.390 OA
ATOM     25  H   UNL     1      -4.978   9.521  31.029  0.00  0.00    +0.210 HD
ENDBRANCH  14  24
BRANCH  12  26
ATOM     26  O   UNL     1      -4.530   7.400  26.865  0.00  0.00    -0.343 OA
ATOM     27  C   UNL     1      -5.339   7.887  25.765  0.00  0.00    +0.198 C 
ENDBRANCH  12  26
ENDBRANCH   9  10
BRANCH   9  28
ATOM     28  O   UNL     1      -4.951  12.513  26.715  0.00  0.00    -0.387 OA
ATOM     29  H   UNL     1      -5.034  13.402  26.363  0.00  0.00    +0.210 HD
ENDBRANCH   9  28
ENDBRANCH   6   9
ENDBRANCH   5   6
ENDBRANCH   3   5
BRANCH   1  30
ATOM     30  O   UNL     1      -5.603  13.612  21.719  0.00  0.00    -0.444 OA
BRANCH  30  31
ATOM     31  C   UNL     1      -6.048  12.308  21.339  0.00  0.00    +0.292 C 
BRANCH  31  33
ATOM     32  N   UNL     1      -7.244  12.198  19.171  0.00  0.00    -0.131 NA
ATOM     33  C   UNL     1      -6.072  12.181  19.870  0.00  0.00    +0.121 A 
ATOM     34  C   UNL     1      -5.026  12.044  18.988  0.00  0.00    +0.143 A 
ATOM     35  N   UNL     1      -5.611  12.010  17.743  0.00  0.00    -0.220 N 
ATOM     36  N   UNL     1      -6.956  12.087  17.879  0.00  0.00    -0.060 NA
BRANCH  35  37
ATOM     37  C   UNL     1      -4.979  11.946  16.476  0.00  0.00    +0.067 A 
ATOM     38  C   UNL     1      -5.473  12.698  15.398  0.00  0.00    +0.030 A 
ATOM     39  C   UNL     1      -4.885  12.587  14.138  0.00  0.00    +0.031 A 
ATOM     40  C   UNL     1      -3.795  11.735  13.952  0.00  0.00    +0.109 A 
ATOM     41  C   UNL     1      -3.285  10.988  15.018  0.00  0.00    +0.031 A 
ATOM     42  C   UNL     1      -3.872  11.102  16.283  0.00  0.00    +0.030 A 
BRANCH  40  43
ATOM     43  S   UNL     1      -3.173  11.505  12.308  0.00  0.00    +0.074 S 
ATOM     44  O   UNL     1      -1.794  11.069  12.419  0.00  0.00    -0.150 OA
ATOM     45  O   UNL     1      -4.124  10.716  11.561  0.00  0.00    -0.150 OA
BRANCH  43  46
ATOM     46  N   UNL     1      -3.087  13.077  11.696  0.00  0.00    -0.194 N 
ATOM     47  H   UNL     1      -3.545  13.673  12.380  0.00  0.00    +0.176 HD
ATOM     48  C   UNL     1      -1.761  13.464  11.410  0.00  0.00    +0.177 A 
ATOM     49  S   UNL     1      -0.820  14.398  12.489  0.00  0.00    -0.059 S 
ATOM     50  C   UNL     1       0.428  14.456  11.312  0.00  0.00    +0.068 A 
ATOM     51  C   UNL     1       0.003  13.828  10.160  0.00  0.00    +0.120 A 
ATOM     52  N   UNL     1      -1.243  13.231  10.230  0.00  0.00    -0.232 NA
ENDBRANCH  43  46
ENDBRANCH  40  43
ENDBRANCH  35  37
ENDBRANCH  31  33
ENDBRANCH  30  31
ENDBRANCH   1  30
TORSDOF 16
