REMARK VINA RESULT:    -4.424      2.130      5.043
REMARK INTER + INTRA:         -10.764
REMARK INTER:                  -7.293
REMARK INTRA:                  -3.471
REMARK UNBOUND:                -2.848
REMARK  Name = lig_assembled_63.pdb
REMARK  17 active torsions:
REMARK  status: ('A' for Active; 'I' for Inactive)
REMARK    1  A    between atoms: _2  and  _11
REMARK    2  A    between atoms: _6  and  _20
REMARK    3  A    between atoms: _7  and  _15
REMARK    4  A    between atoms: _8  and  _9
REMARK    5  A    between atoms: _8  and  _20
REMARK    6  A    between atoms: _16  and  _36
REMARK    7  A    between atoms: _18  and  _24
REMARK    8  A    between atoms: _19  and  _23
REMARK    9  A    between atoms: _23  and  _24
REMARK   10  A    between atoms: _26  and  _27
REMARK   11  A    between atoms: _28  and  _29
REMARK   12  A    between atoms: _30  and  _32
REMARK   13  A    between atoms: _32  and  _33
REMARK   14  A    between atoms: _32  and  _34
REMARK   15  A    between atoms: _34  and  _35
REMARK   16  A    between atoms: _34  and  _36
REMARK   17  A    between atoms: _37  and  _39
REMARK                            x       y       z     vdW  Elec       q    Type
REMARK                         _______ _______ _______ _____ _____    ______ ____
ROOT
ATOM      1  C   UNL     1      -5.755   8.238  25.272  0.00  0.00    +0.163 C 
ENDROOT
BRANCH   1   2
ATOM      2  O   UNL     1      -5.816   8.870  26.561  0.00  0.00    -0.388 OA
ATOM      3  H   UNL     1      -6.413   8.379  27.131  0.00  0.00    +0.210 HD
ENDBRANCH   1   2
BRANCH   1   4
ATOM      4  C   UNL     1      -4.380   7.614  25.060  0.00  0.00    +0.141 C 
BRANCH   4   7
ATOM      5  C   UNL     1      -2.497   7.197  26.605  0.00  0.00    +0.401 C 
ATOM      6  O   UNL     1      -2.336   6.029  26.243  0.00  0.00    -0.226 OA
ATOM      7  N   UNL     1      -3.433   8.008  26.110  0.00  0.00    -0.279 N 
ATOM      8  H   UNL     1      -3.493   8.948  26.478  0.00  0.00    +0.152 HD
BRANCH   5   9
ATOM      9  O   UNL     1      -1.643   7.735  27.619  0.00  0.00    -0.444 OA
BRANCH   9  10
ATOM     10  C   UNL     1      -2.185   7.435  28.908  0.00  0.00    +0.292 C 
BRANCH  10  12
ATOM     11  N   UNL     1      -4.401   8.509  29.114  0.00  0.00    -0.131 NA
ATOM     12  C   UNL     1      -3.060   8.531  29.366  0.00  0.00    +0.121 A 
ATOM     13  C   UNL     1      -2.753   9.683  30.049  0.00  0.00    +0.145 A 
ATOM     14  N   UNL     1      -3.950  10.362  30.160  0.00  0.00    -0.200 N 
ATOM     15  N   UNL     1      -4.933   9.620  29.606  0.00  0.00    -0.059 NA
BRANCH  14  16
ATOM     16  C   UNL     1      -4.137  11.665  30.710  0.00  0.00    +0.173 A 
ATOM     17  C   UNL     1      -4.286  11.884  32.082  0.00  0.00    +0.096 A 
ATOM     18  C   UNL     1      -4.564  13.195  32.506  0.00  0.00    +0.024 A 
ATOM     19  C   UNL     1      -4.657  14.232  31.583  0.00  0.00    +0.021 A 
ATOM     20  C   UNL     1      -4.457  13.934  30.250  0.00  0.00    +0.113 A 
ATOM     21  N   UNL     1      -4.206  12.687  29.798  0.00  0.00    -0.235 NA
BRANCH  17  22
ATOM     22  C   UNL     1      -4.161  10.886  33.103  0.00  0.00    +0.103 C 
ATOM     23  N   UNL     1      -3.957  10.105  33.938  0.00  0.00    -0.191 NA
ENDBRANCH  17  22
ENDBRANCH  14  16
ENDBRANCH  10  12
ENDBRANCH   9  10
ENDBRANCH   5   9
ENDBRANCH   4   7
ENDBRANCH   1   4
BRANCH   1  24
ATOM     24  C   UNL     1      -6.039   9.251  24.149  0.00  0.00    +0.175 C 
BRANCH  24  25
ATOM     25  C   UNL     1      -5.011  10.391  24.127  0.00  0.00    +0.176 C 
ATOM     26  O   UNL     1      -5.330  11.302  25.214  0.00  0.00    -0.332 OA
ATOM     27  C   UNL     1      -4.386  12.406  25.415  0.00  0.00    +0.277 C 
ATOM     28  C   UNL     1      -4.199  13.204  24.102  0.00  0.00    +0.110 C 
ATOM     29  C   UNL     1      -3.888  12.274  22.910  0.00  0.00    +0.143 C 
ATOM     30  C   UNL     1      -4.931  11.162  22.796  0.00  0.00    +0.133 C 
BRANCH  30  31
ATOM     31  N   UNL     1      -4.577  10.233  21.711  0.00  0.00    -0.308 N 
ATOM     32  H   UNL     1      -3.717   9.709  21.801  0.00  0.00    +0.149 HD
ATOM     33  C   UNL     1      -5.316  10.037  20.616  0.00  0.00    +0.210 C 
ATOM     34  C   UNL     1      -6.606  10.869  20.497  0.00  0.00    +0.109 C 
ATOM     35  O   UNL     1      -5.002   9.241  19.730  0.00  0.00    -0.276 OA
ENDBRANCH  30  31
BRANCH  27  36
ATOM     36  C   UNL     1      -3.019  11.875  25.896  0.00  0.00    +0.414 C 
ATOM     37  O   UNL     1      -1.978  12.320  25.415  0.00  0.00    -0.240 OA
ATOM     38  O   UNL     1      -2.958  11.003  26.763  0.00  0.00    -0.240 OA
ENDBRANCH  27  36
BRANCH  27  39
ATOM     39  O   UNL     1      -4.943  13.296  26.416  0.00  0.00    -0.343 OA
ATOM     40  C   UNL     1      -6.320  13.023  26.781  0.00  0.00    +0.198 C 
ENDBRANCH  27  39
BRANCH  29  41
ATOM     41  O   UNL     1      -3.874  13.031  21.699  0.00  0.00    -0.390 OA
ATOM     42  H   UNL     1      -3.129  12.757  21.158  0.00  0.00    +0.210 HD
ENDBRANCH  29  41
ENDBRANCH  24  25
BRANCH  24  43
ATOM     43  O   UNL     1      -7.371   9.785  24.286  0.00  0.00    -0.387 OA
ATOM     44  H   UNL     1      -7.964   9.324  23.688  0.00  0.00    +0.210 HD
ENDBRANCH  24  43
ENDBRANCH   1  24
TORSDOF 15
