REMARK VINA RESULT:    -5.432      4.166      9.526
REMARK INTER + INTRA:         -12.769
REMARK INTER:                 -10.776
REMARK INTRA:                  -1.993
REMARK UNBOUND:                -3.049
REMARK  Name = lig_assembled_28.pdb
REMARK  17 active torsions:
REMARK  status: ('A' for Active; 'I' for Inactive)
REMARK    1  A    between atoms: _2  and  _9
REMARK    2  A    between atoms: _4  and  _22
REMARK    3  A    between atoms: _6  and  _7
REMARK    4  A    between atoms: _6  and  _22
REMARK    5  A    between atoms: _9  and  _10
REMARK    6  A    between atoms: _18  and  _38
REMARK    7  A    between atoms: _20  and  _26
REMARK    8  A    between atoms: _21  and  _25
REMARK    9  A    between atoms: _25  and  _26
REMARK   10  A    between atoms: _28  and  _29
REMARK   11  A    between atoms: _30  and  _31
REMARK   12  A    between atoms: _32  and  _34
REMARK   13  A    between atoms: _34  and  _35
REMARK   14  A    between atoms: _34  and  _36
REMARK   15  A    between atoms: _36  and  _37
REMARK   16  A    between atoms: _36  and  _38
REMARK   17  A    between atoms: _39  and  _41
REMARK                            x       y       z     vdW  Elec       q    Type
REMARK                         _______ _______ _______ _____ _____    ______ ____
ROOT
ATOM      1  C   UNL     1      -5.424  11.647  27.247  0.00  0.00    +0.163 C 
ENDROOT
BRANCH   1   2
ATOM      2  O   UNL     1      -5.617  10.255  26.949  0.00  0.00    -0.388 OA
ATOM      3  H   UNL     1      -5.769  10.147  26.007  0.00  0.00    +0.210 HD
ENDBRANCH   1   2
BRANCH   1   4
ATOM      4  C   UNL     1      -4.194  12.173  26.513  0.00  0.00    +0.141 C 
BRANCH   4   7
ATOM      5  C   UNL     1      -2.975  10.878  24.798  0.00  0.00    +0.401 C 
ATOM      6  O   UNL     1      -1.986  10.688  25.509  0.00  0.00    -0.226 OA
ATOM      7  N   UNL     1      -4.050  11.566  25.184  0.00  0.00    -0.279 N 
ATOM      8  H   UNL     1      -4.808  11.677  24.525  0.00  0.00    +0.152 HD
BRANCH   5   9
ATOM      9  O   UNL     1      -2.991  10.341  23.472  0.00  0.00    -0.444 OA
BRANCH   9  10
ATOM     10  C   UNL     1      -3.129  11.406  22.527  0.00  0.00    +0.292 C 
BRANCH  10  12
ATOM     11  N   UNL     1      -4.287   9.647  21.219  0.00  0.00    -0.131 NA
ATOM     12  C   UNL     1      -3.804  10.925  21.307  0.00  0.00    +0.120 A 
ATOM     13  C   UNL     1      -4.093  11.596  20.141  0.00  0.00    +0.137 A 
ATOM     14  N   UNL     1      -4.838  10.706  19.420  0.00  0.00    -0.247 N 
ATOM     15  N   UNL     1      -4.907   9.520  20.053  0.00  0.00    -0.065 NA
BRANCH  14  16
ATOM     16  C   UNL     1      -5.595  10.889  18.189  0.00  0.00    +0.180 C 
BRANCH  16  17
ATOM     17  C   UNL     1      -4.730  11.042  16.960  0.00  0.00    -0.022 A 
ATOM     18  C   UNL     1      -4.243   9.903  16.293  0.00  0.00    +0.055 A 
ATOM     19  C   UNL     1      -3.555  10.090  15.113  0.00  0.00    +0.167 A 
ATOM     20  O   UNL     1      -3.066   9.100  14.317  0.00  0.00    -0.453 OA
ATOM     21  C   UNL     1      -2.580   9.873  13.199  0.00  0.00    +0.466 C 
ATOM     22  O   UNL     1      -2.650  11.299  13.415  0.00  0.00    -0.453 OA
ATOM     23  C   UNL     1      -3.315  11.340  14.601  0.00  0.00    +0.166 A 
ATOM     24  C   UNL     1      -3.747  12.481  15.243  0.00  0.00    +0.050 A 
ATOM     25  C   UNL     1      -4.467  12.327  16.431  0.00  0.00    +0.009 A 
ENDBRANCH  16  17
ENDBRANCH  14  16
ENDBRANCH  10  12
ENDBRANCH   9  10
ENDBRANCH   5   9
ENDBRANCH   4   7
ENDBRANCH   1   4
BRANCH   1  26
ATOM     26  C   UNL     1      -5.252  11.867  28.760  0.00  0.00    +0.175 C 
BRANCH  26  27
ATOM     27  C   UNL     1      -4.185  10.941  29.361  0.00  0.00    +0.176 C 
ATOM     28  O   UNL     1      -4.780   9.625  29.532  0.00  0.00    -0.332 OA
ATOM     29  C   UNL     1      -3.872   8.574  30.001  0.00  0.00    +0.277 C 
ATOM     30  C   UNL     1      -3.174   9.007  31.313  0.00  0.00    +0.110 C 
ATOM     31  C   UNL     1      -2.553  10.415  31.190  0.00  0.00    +0.143 C 
ATOM     32  C   UNL     1      -3.584  11.428  30.693  0.00  0.00    +0.133 C 
BRANCH  32  33
ATOM     33  N   UNL     1      -2.959  12.745  30.497  0.00  0.00    -0.308 N 
ATOM     34  H   UNL     1      -2.261  12.833  29.771  0.00  0.00    +0.149 HD
ATOM     35  C   UNL     1      -3.253  13.833  31.215  0.00  0.00    +0.210 C 
ATOM     36  C   UNL     1      -4.302  13.660  32.330  0.00  0.00    +0.109 C 
ATOM     37  O   UNL     1      -2.724  14.927  31.019  0.00  0.00    -0.276 OA
ENDBRANCH  32  33
BRANCH  29  38
ATOM     38  C   UNL     1      -2.806   8.256  28.931  0.00  0.00    +0.414 C 
ATOM     39  O   UNL     1      -3.014   8.526  27.749  0.00  0.00    -0.240 OA
ATOM     40  O   UNL     1      -1.740   7.729  29.250  0.00  0.00    -0.240 OA
ENDBRANCH  29  38
BRANCH  29  41
ATOM     41  O   UNL     1      -4.661   7.387  30.272  0.00  0.00    -0.343 OA
ATOM     42  C   UNL     1      -5.945   7.338  29.600  0.00  0.00    +0.198 C 
ENDBRANCH  29  41
BRANCH  31  43
ATOM     43  O   UNL     1      -2.056  10.834  32.462  0.00  0.00    -0.390 OA
ATOM     44  H   UNL     1      -1.419  10.193  32.785  0.00  0.00    +0.210 HD
ENDBRANCH  31  43
ENDBRANCH  26  27
BRANCH  26  45
ATOM     45  O   UNL     1      -6.511  11.679  29.436  0.00  0.00    -0.387 OA
ATOM     46  H   UNL     1      -7.099  12.409  29.228  0.00  0.00    +0.210 HD
ENDBRANCH  26  45
ENDBRANCH   1  26
TORSDOF 15
