REMARK VINA RESULT:    -4.055      3.295      6.332
REMARK INTER + INTRA:         -10.308
REMARK INTER:                  -7.374
REMARK INTRA:                  -2.934
REMARK UNBOUND:                -2.934
REMARK  Name = lig_assembled_72.pdb
REMARK  20 active torsions:
REMARK  status: ('A' for Active; 'I' for Inactive)
REMARK    1  A    between atoms: _2  and  _9
REMARK    2  A    between atoms: _4  and  _17
REMARK    3  A    between atoms: _5  and  _9
REMARK    4  A    between atoms: _5  and  _12
REMARK    5  A    between atoms: _6  and  _7
REMARK    6  A    between atoms: _6  and  _17
REMARK    7  A    between atoms: _9  and  _10
REMARK    8  A    between atoms: _9  and  _11
REMARK    9  A    between atoms: _13  and  _33
REMARK   10  A    between atoms: _15  and  _21
REMARK   11  A    between atoms: _16  and  _20
REMARK   12  A    between atoms: _20  and  _21
REMARK   13  A    between atoms: _23  and  _24
REMARK   14  A    between atoms: _25  and  _26
REMARK   15  A    between atoms: _27  and  _29
REMARK   16  A    between atoms: _29  and  _30
REMARK   17  A    between atoms: _29  and  _31
REMARK   18  A    between atoms: _31  and  _32
REMARK   19  A    between atoms: _31  and  _33
REMARK   20  A    between atoms: _34  and  _36
REMARK                            x       y       z     vdW  Elec       q    Type
REMARK                         _______ _______ _______ _____ _____    ______ ____
ROOT
ATOM      1  C   UNL     1      -5.638   7.611  24.489  0.00  0.00    +0.163 C 
ENDROOT
BRANCH   1   2
ATOM      2  O   UNL     1      -4.522   7.014  25.168  0.00  0.00    -0.388 OA
ATOM      3  H   UNL     1      -3.818   6.841  24.538  0.00  0.00    +0.210 HD
ENDBRANCH   1   2
BRANCH   1   4
ATOM      4  C   UNL     1      -5.184   8.801  23.625  0.00  0.00    +0.175 C 
BRANCH   4   5
ATOM      5  C   UNL     1      -4.031   9.579  24.275  0.00  0.00    +0.176 C 
ATOM      6  O   UNL     1      -4.293   9.658  25.703  0.00  0.00    -0.332 OA
ATOM      7  C   UNL     1      -3.238  10.281  26.508  0.00  0.00    +0.277 C 
ATOM      8  C   UNL     1      -2.898  11.688  25.959  0.00  0.00    +0.110 C 
ATOM      9  C   UNL     1      -2.642  11.660  24.438  0.00  0.00    +0.143 C 
ATOM     10  C   UNL     1      -3.801  10.989  23.699  0.00  0.00    +0.133 C 
BRANCH  10  11
ATOM     11  N   UNL     1      -3.507  10.891  22.261  0.00  0.00    -0.308 N 
ATOM     12  H   UNL     1      -2.791  10.239  21.969  0.00  0.00    +0.149 HD
ATOM     13  C   UNL     1      -4.123  11.605  21.315  0.00  0.00    +0.210 C 
ATOM     14  C   UNL     1      -5.190  12.608  21.795  0.00  0.00    +0.109 C 
ATOM     15  O   UNL     1      -3.866  11.491  20.116  0.00  0.00    -0.276 OA
ENDBRANCH  10  11
BRANCH   7  16
ATOM     16  C   UNL     1      -1.965   9.408  26.510  0.00  0.00    +0.414 C 
ATOM     17  O   UNL     1      -2.051   8.187  26.385  0.00  0.00    -0.240 OA
ATOM     18  O   UNL     1      -0.854   9.924  26.638  0.00  0.00    -0.240 OA
ENDBRANCH   7  16
BRANCH   9  19
ATOM     19  O   UNL     1      -2.484  12.994  23.951  0.00  0.00    -0.390 OA
ATOM     20  H   UNL     1      -1.589  13.111  23.624  0.00  0.00    +0.210 HD
ENDBRANCH   9  19
BRANCH   7  21
ATOM     21  O   UNL     1      -3.733  10.425  27.863  0.00  0.00    -0.343 OA
ATOM     22  C   UNL     1      -3.878  11.794  28.320  0.00  0.00    +0.198 C 
ENDBRANCH   7  21
ENDBRANCH   4   5
BRANCH   4  23
ATOM     23  O   UNL     1      -6.297   9.681  23.369  0.00  0.00    -0.387 OA
ATOM     24  H   UNL     1      -6.688   9.954  24.203  0.00  0.00    +0.210 HD
ENDBRANCH   4  23
ENDBRANCH   1   4
BRANCH   1  25
ATOM     25  C   UNL     1      -6.327   6.575  23.607  0.00  0.00    +0.141 C 
BRANCH  25  28
ATOM     26  C   UNL     1      -6.030   6.428  21.158  0.00  0.00    +0.401 C 
ATOM     27  O   UNL     1      -5.379   5.381  21.205  0.00  0.00    -0.226 OA
ATOM     28  N   UNL     1      -6.506   7.058  22.232  0.00  0.00    -0.279 N 
ATOM     29  H   UNL     1      -7.020   7.917  22.092  0.00  0.00    +0.152 HD
BRANCH  26  30
ATOM     30  O   UNL     1      -6.297   7.022  19.886  0.00  0.00    -0.444 OA
BRANCH  30  31
ATOM     31  C   UNL     1      -6.422   8.439  20.037  0.00  0.00    +0.292 C 
BRANCH  31  33
ATOM     32  N   UNL     1      -4.738   8.777  18.257  0.00  0.00    -0.131 NA
ATOM     33  C   UNL     1      -5.929   9.128  18.831  0.00  0.00    +0.120 A 
ATOM     34  C   UNL     1      -6.491  10.155  18.103  0.00  0.00    +0.137 A 
ATOM     35  N   UNL     1      -5.595  10.385  17.095  0.00  0.00    -0.244 N 
ATOM     36  N   UNL     1      -4.543   9.549  17.199  0.00  0.00    -0.065 NA
BRANCH  35  37
ATOM     37  C   UNL     1      -5.681  11.372  16.009  0.00  0.00    +0.083 C 
ATOM     38  C   UNL     1      -4.544  12.399  16.167  0.00  0.00    +0.038 C 
ATOM     39  C   UNL     1      -7.041  12.097  16.075  0.00  0.00    +0.038 C 
BRANCH  37  40
ATOM     40  C   UNL     1      -5.527  10.705  14.615  0.00  0.00    +0.185 C 
BRANCH  40  41
ATOM     41  O   UNL     1      -5.730   9.293  14.654  0.00  0.00    -0.393 OA
ATOM     42  H   UNL     1      -6.271   9.077  13.864  0.00  0.00    +0.209 HD
ENDBRANCH  40  41
ENDBRANCH  37  40
ENDBRANCH  35  37
ENDBRANCH  31  33
ENDBRANCH  30  31
ENDBRANCH  26  30
ENDBRANCH  25  28
ENDBRANCH   1  25
TORSDOF 16
