REMARK VINA RESULT:    -4.283      3.400      6.664
REMARK INTER + INTRA:         -11.892
REMARK INTER:                  -8.486
REMARK INTRA:                  -3.406
REMARK UNBOUND:                -3.979
REMARK  Name = lig_assembled_24.pdb
REMARK  19 active torsions:
REMARK  status: ('A' for Active; 'I' for Inactive)
REMARK    1  A    between atoms: _2  and  _9
REMARK    2  A    between atoms: _4  and  _21
REMARK    3  A    between atoms: _6  and  _7
REMARK    4  A    between atoms: _6  and  _21
REMARK    5  A    between atoms: _9  and  _10
REMARK    6  A    between atoms: _13  and  _16
REMARK    7  A    between atoms: _14  and  _16
REMARK    8  A    between atoms: _17  and  _37
REMARK    9  A    between atoms: _19  and  _25
REMARK   10  A    between atoms: _20  and  _24
REMARK   11  A    between atoms: _24  and  _25
REMARK   12  A    between atoms: _27  and  _28
REMARK   13  A    between atoms: _29  and  _30
REMARK   14  A    between atoms: _31  and  _33
REMARK   15  A    between atoms: _33  and  _34
REMARK   16  A    between atoms: _33  and  _35
REMARK   17  A    between atoms: _35  and  _36
REMARK   18  A    between atoms: _35  and  _37
REMARK   19  A    between atoms: _38  and  _40
REMARK                            x       y       z     vdW  Elec       q    Type
REMARK                         _______ _______ _______ _____ _____    ______ ____
ROOT
ATOM      1  C   UNL     1      -2.321   9.946  27.156  0.00  0.00    +0.163 C 
ENDROOT
BRANCH   1   2
ATOM      2  O   UNL     1      -1.175   9.898  26.291  0.00  0.00    -0.388 OA
ATOM      3  H   UNL     1      -0.550   9.250  26.622  0.00  0.00    +0.210 HD
ENDBRANCH   1   2
BRANCH   1   4
ATOM      4  C   UNL     1      -3.556   9.340  26.468  0.00  0.00    +0.175 C 
BRANCH   4   5
ATOM      5  C   UNL     1      -4.286  10.364  25.586  0.00  0.00    +0.176 C 
ATOM      6  O   UNL     1      -3.436  10.657  24.443  0.00  0.00    -0.332 OA
ATOM      7  C   UNL     1      -4.018  11.543  23.430  0.00  0.00    +0.277 C 
ATOM      8  C   UNL     1      -4.498  12.865  24.078  0.00  0.00    +0.110 C 
ATOM      9  C   UNL     1      -5.380  12.604  25.317  0.00  0.00    +0.143 C 
ATOM     10  C   UNL     1      -4.679  11.669  26.303  0.00  0.00    +0.133 C 
BRANCH  10  11
ATOM     11  N   UNL     1      -5.563  11.359  27.438  0.00  0.00    -0.308 N 
ATOM     12  H   UNL     1      -6.351  10.749  27.269  0.00  0.00    +0.149 HD
ATOM     13  C   UNL     1      -5.394  11.831  28.676  0.00  0.00    +0.210 C 
ATOM     14  C   UNL     1      -4.199  12.779  28.894  0.00  0.00    +0.109 C 
ATOM     15  O   UNL     1      -6.142  11.543  29.610  0.00  0.00    -0.276 OA
ENDBRANCH  10  11
BRANCH   7  16
ATOM     16  C   UNL     1      -5.204  10.857  22.720  0.00  0.00    +0.414 C 
ATOM     17  O   UNL     1      -6.277  11.446  22.596  0.00  0.00    -0.240 OA
ATOM     18  O   UNL     1      -5.088   9.715  22.273  0.00  0.00    -0.240 OA
ENDBRANCH   7  16
BRANCH   7  19
ATOM     19  O   UNL     1      -2.985  11.857  22.461  0.00  0.00    -0.343 OA
ATOM     20  C   UNL     1      -3.344  12.872  21.490  0.00  0.00    +0.198 C 
ENDBRANCH   7  19
BRANCH   9  21
ATOM     21  O   UNL     1      -5.673  13.841  25.969  0.00  0.00    -0.390 OA
ATOM     22  H   UNL     1      -5.143  14.541  25.581  0.00  0.00    +0.210 HD
ENDBRANCH   9  21
ENDBRANCH   4   5
BRANCH   4  23
ATOM     23  O   UNL     1      -4.459   8.800  27.453  0.00  0.00    -0.387 OA
ATOM     24  H   UNL     1      -4.288   7.862  27.564  0.00  0.00    +0.210 HD
ENDBRANCH   4  23
ENDBRANCH   1   4
BRANCH   1  25
ATOM     25  C   UNL     1      -2.033   9.185  28.446  0.00  0.00    +0.141 C 
BRANCH  25  28
ATOM     26  C   UNL     1      -3.364   9.317  30.524  0.00  0.00    +0.401 C 
ATOM     27  O   UNL     1      -3.759   8.151  30.456  0.00  0.00    -0.226 OA
ATOM     28  N   UNL     1      -2.559   9.885  29.624  0.00  0.00    -0.279 N 
ATOM     29  H   UNL     1      -2.297  10.851  29.761  0.00  0.00    +0.152 HD
BRANCH  26  30
ATOM     30  O   UNL     1      -3.784  10.130  31.622  0.00  0.00    -0.444 OA
BRANCH  30  31
ATOM     31  C   UNL     1      -2.638  10.699  32.262  0.00  0.00    +0.292 C 
BRANCH  31  33
ATOM     32  N   UNL     1      -1.722  12.994  32.122  0.00  0.00    -0.131 NA
ATOM     33  C   UNL     1      -2.782  12.163  32.366  0.00  0.00    +0.120 A 
ATOM     34  C   UNL     1      -3.888  12.922  32.674  0.00  0.00    +0.137 A 
ATOM     35  N   UNL     1      -3.459  14.210  32.533  0.00  0.00    -0.247 N 
ATOM     36  N   UNL     1      -2.143  14.244  32.236  0.00  0.00    -0.065 NA
BRANCH  35  37
ATOM     37  C   UNL     1      -4.189  15.466  32.595  0.00  0.00    +0.180 C 
BRANCH  37  38
ATOM     38  C   UNL     1      -5.065  15.748  31.399  0.00  0.00    -0.026 A 
ATOM     39  C   UNL     1      -6.188  14.953  31.137  0.00  0.00    +0.009 A 
ATOM     40  C   UNL     1      -6.996  15.222  30.028  0.00  0.00    +0.046 A 
ATOM     41  C   UNL     1      -6.707  16.292  29.179  0.00  0.00    +0.120 A 
ATOM     42  C   UNL     1      -5.579  17.071  29.420  0.00  0.00    +0.046 A 
ATOM     43  C   UNL     1      -4.761  16.803  30.525  0.00  0.00    +0.009 A 
BRANCH  41  44
ATOM     44  O   UNL     1      -7.556  16.444  28.118  0.00  0.00    -0.495 OA
ATOM     45  C   UNL     1      -7.180  17.440  27.172  0.00  0.00    +0.277 C 
ENDBRANCH  41  44
ENDBRANCH  37  38
ENDBRANCH  35  37
ENDBRANCH  31  33
ENDBRANCH  30  31
ENDBRANCH  26  30
ENDBRANCH  25  28
ENDBRANCH   1  25
TORSDOF 16
