REMARK VINA RESULT:    -4.874      4.126      7.150
REMARK INTER + INTRA:         -10.943
REMARK INTER:                  -7.181
REMARK INTRA:                  -3.762
REMARK UNBOUND:                -2.508
REMARK  Name = lig_assembled_48.pdb
REMARK  16 active torsions:
REMARK  status: ('A' for Active; 'I' for Inactive)
REMARK    1  A    between atoms: _2  and  _9
REMARK    2  A    between atoms: _4  and  _18
REMARK    3  A    between atoms: _6  and  _7
REMARK    4  A    between atoms: _6  and  _18
REMARK    5  A    between atoms: _14  and  _34
REMARK    6  A    between atoms: _16  and  _22
REMARK    7  A    between atoms: _17  and  _21
REMARK    8  A    between atoms: _21  and  _22
REMARK    9  A    between atoms: _24  and  _25
REMARK   10  A    between atoms: _26  and  _27
REMARK   11  A    between atoms: _28  and  _30
REMARK   12  A    between atoms: _30  and  _31
REMARK   13  A    between atoms: _30  and  _32
REMARK   14  A    between atoms: _32  and  _33
REMARK   15  A    between atoms: _32  and  _34
REMARK   16  A    between atoms: _35  and  _37
REMARK                            x       y       z     vdW  Elec       q    Type
REMARK                         _______ _______ _______ _____ _____    ______ ____
ROOT
ATOM      1  C   UNL     1      -2.863  12.284  23.218  0.00  0.00    +0.163 C 
ENDROOT
BRANCH   1   2
ATOM      2  O   UNL     1      -2.349  12.762  24.472  0.00  0.00    -0.388 OA
ATOM      3  H   UNL     1      -2.633  12.177  25.179  0.00  0.00    +0.210 HD
ENDBRANCH   1   2
BRANCH   1   4
ATOM      4  C   UNL     1      -3.763  13.341  22.586  0.00  0.00    +0.141 C 
BRANCH   4   7
ATOM      5  C   UNL     1      -5.911  13.422  21.367  0.00  0.00    +0.401 C 
ATOM      6  O   UNL     1      -6.086  14.627  21.565  0.00  0.00    -0.226 OA
ATOM      7  N   UNL     1      -4.856  12.739  21.813  0.00  0.00    -0.279 N 
ATOM      8  H   UNL     1      -4.806  11.751  21.608  0.00  0.00    +0.152 HD
BRANCH   5   9
ATOM      9  O   UNL     1      -6.887  12.692  20.620  0.00  0.00    -0.444 OA
BRANCH   9  10
ATOM     10  C   UNL     1      -6.241  11.962  19.574  0.00  0.00    +0.292 C 
BRANCH  10  12
ATOM     11  N   UNL     1      -4.878   9.969  20.099  0.00  0.00    -0.131 NA
ATOM     12  C   UNL     1      -6.109  10.544  19.954  0.00  0.00    +0.120 A 
ATOM     13  C   UNL     1      -7.079   9.608  20.238  0.00  0.00    +0.137 A 
ATOM     14  N   UNL     1      -6.377   8.510  20.642  0.00  0.00    -0.248 N 
ATOM     15  N   UNL     1      -5.052   8.713  20.482  0.00  0.00    -0.065 NA
BRANCH  14  16
ATOM     16  C   UNL     1      -6.829   7.258  21.235  0.00  0.00    +0.109 C 
ATOM     17  C   UNL     1      -5.903   6.826  22.389  0.00  0.00    +0.027 C 
ATOM     18  C   UNL     1      -6.090   7.714  23.617  0.00  0.00    +0.002 C 
ATOM     19  C   UNL     1      -7.529   7.653  24.117  0.00  0.00    +0.000 C 
ATOM     20  C   UNL     1      -8.542   7.989  23.026  0.00  0.00    +0.002 C 
ATOM     21  C   UNL     1      -8.294   7.233  21.715  0.00  0.00    +0.027 C 
ENDBRANCH  14  16
ENDBRANCH  10  12
ENDBRANCH   9  10
ENDBRANCH   5   9
ENDBRANCH   4   7
ENDBRANCH   1   4
BRANCH   1  22
ATOM     22  C   UNL     1      -3.658  10.981  23.411  0.00  0.00    +0.175 C 
BRANCH  22  23
ATOM     23  C   UNL     1      -3.670  10.522  24.876  0.00  0.00    +0.176 C 
ATOM     24  O   UNL     1      -3.187   9.151  24.918  0.00  0.00    -0.332 OA
ATOM     25  C   UNL     1      -3.028   8.576  26.258  0.00  0.00    +0.277 C 
ATOM     26  C   UNL     1      -4.350   8.690  27.056  0.00  0.00    +0.110 C 
ATOM     27  C   UNL     1      -4.919  10.124  27.013  0.00  0.00    +0.143 C 
ATOM     28  C   UNL     1      -5.039  10.624  25.573  0.00  0.00    +0.133 C 
BRANCH  28  29
ATOM     29  N   UNL     1      -5.499  12.022  25.549  0.00  0.00    -0.308 N 
ATOM     30  H   UNL     1      -4.941  12.710  26.034  0.00  0.00    +0.149 HD
ATOM     31  C   UNL     1      -6.606  12.439  24.929  0.00  0.00    +0.210 C 
ATOM     32  C   UNL     1      -7.448  11.361  24.221  0.00  0.00    +0.109 C 
ATOM     33  O   UNL     1      -6.959  13.619  24.913  0.00  0.00    -0.276 OA
ENDBRANCH  28  29
BRANCH  25  34
ATOM     34  C   UNL     1      -1.897   9.288  27.028  0.00  0.00    +0.414 C 
ATOM     35  O   UNL     1      -0.936   9.760  26.422  0.00  0.00    -0.240 OA
ATOM     36  O   UNL     1      -1.946   9.390  28.254  0.00  0.00    -0.240 OA
ENDBRANCH  25  34
BRANCH  27  37
ATOM     37  O   UNL     1      -6.207  10.151  27.630  0.00  0.00    -0.390 OA
ATOM     38  H   UNL     1      -6.110  10.040  28.578  0.00  0.00    +0.210 HD
ENDBRANCH  27  37
BRANCH  25  39
ATOM     39  O   UNL     1      -2.706   7.169  26.107  0.00  0.00    -0.343 OA
ATOM     40  C   UNL     1      -3.827   6.263  26.266  0.00  0.00    +0.198 C 
ENDBRANCH  25  39
ENDBRANCH  22  23
BRANCH  22  41
ATOM     41  O   UNL     1      -3.120   9.942  22.568  0.00  0.00    -0.387 OA
ATOM     42  H   UNL     1      -2.819  10.325  21.741  0.00  0.00    +0.210 HD
ENDBRANCH  22  41
ENDBRANCH   1  22
TORSDOF 14
