REMARK VINA RESULT:    -4.737      4.610      7.256
REMARK INTER + INTRA:         -10.709
REMARK INTER:                  -7.515
REMARK INTRA:                  -3.194
REMARK UNBOUND:                -2.233
REMARK  Name = lig_assembled_61.pdb
REMARK  17 active torsions:
REMARK  status: ('A' for Active; 'I' for Inactive)
REMARK    1  A    between atoms: _2  and  _9
REMARK    2  A    between atoms: _4  and  _17
REMARK    3  A    between atoms: _6  and  _7
REMARK    4  A    between atoms: _6  and  _17
REMARK    5  A    between atoms: _9  and  _10
REMARK    6  A    between atoms: _13  and  _33
REMARK    7  A    between atoms: _15  and  _21
REMARK    8  A    between atoms: _16  and  _20
REMARK    9  A    between atoms: _20  and  _21
REMARK   10  A    between atoms: _23  and  _24
REMARK   11  A    between atoms: _25  and  _26
REMARK   12  A    between atoms: _27  and  _29
REMARK   13  A    between atoms: _29  and  _30
REMARK   14  A    between atoms: _29  and  _31
REMARK   15  A    between atoms: _31  and  _32
REMARK   16  A    between atoms: _31  and  _33
REMARK   17  A    between atoms: _34  and  _36
REMARK                            x       y       z     vdW  Elec       q    Type
REMARK                         _______ _______ _______ _____ _____    ______ ____
ROOT
ATOM      1  C   UNL     1      -2.915  12.103  24.341  0.00  0.00    +0.163 C 
ENDROOT
BRANCH   1   2
ATOM      2  O   UNL     1      -2.119  11.708  25.470  0.00  0.00    -0.388 OA
ATOM      3  H   UNL     1      -2.686  11.587  26.236  0.00  0.00    +0.210 HD
ENDBRANCH   1   2
BRANCH   1   4
ATOM      4  C   UNL     1      -3.896  13.197  24.751  0.00  0.00    +0.141 C 
BRANCH   4   7
ATOM      5  C   UNL     1      -6.163  13.231  23.769  0.00  0.00    +0.401 C 
ATOM      6  O   UNL     1      -6.696  12.697  24.744  0.00  0.00    -0.226 OA
ATOM      7  N   UNL     1      -4.859  13.496  23.684  0.00  0.00    -0.279 N 
ATOM      8  H   UNL     1      -4.514  13.928  22.838  0.00  0.00    +0.152 HD
BRANCH   5   9
ATOM      9  O   UNL     1      -6.972  13.592  22.647  0.00  0.00    -0.444 OA
BRANCH   9  10
ATOM     10  C   UNL     1      -6.134  14.033  21.575  0.00  0.00    +0.292 C 
BRANCH  10  12
ATOM     11  N   UNL     1      -4.432  12.372  20.889  0.00  0.00    -0.131 NA
ATOM     12  C   UNL     1      -5.696  12.885  20.759  0.00  0.00    +0.120 A 
ATOM     13  C   UNL     1      -6.380  12.165  19.804  0.00  0.00    +0.137 A 
ATOM     14  N   UNL     1      -5.459  11.267  19.350  0.00  0.00    -0.247 N 
ATOM     15  N   UNL     1      -4.303  11.367  20.033  0.00  0.00    -0.065 NA
BRANCH  14  16
ATOM     16  C   UNL     1      -5.614  10.268  18.308  0.00  0.00    +0.180 C 
BRANCH  16  17
ATOM     17  C   UNL     1      -4.748  10.566  17.115  0.00  0.00    -0.019 A 
ATOM     18  C   UNL     1      -4.474  11.885  16.617  0.00  0.00    +0.013 A 
ATOM     19  C   UNL     1      -3.683  11.875  15.488  0.00  0.00    +0.045 A 
ATOM     20  S   UNL     1      -3.251  10.290  15.023  0.00  0.00    -0.105 S 
ATOM     21  C   UNL     1      -4.131   9.613  16.321  0.00  0.00    +0.050 A 
ENDBRANCH  16  17
ENDBRANCH  14  16
ENDBRANCH  10  12
ENDBRANCH   9  10
ENDBRANCH   5   9
ENDBRANCH   4   7
ENDBRANCH   1   4
BRANCH   1  22
ATOM     22  C   UNL     1      -3.691  10.905  23.769  0.00  0.00    +0.175 C 
BRANCH  22  23
ATOM     23  C   UNL     1      -4.059   9.883  24.854  0.00  0.00    +0.176 C 
ATOM     24  O   UNL     1      -2.857   9.136  25.191  0.00  0.00    -0.332 OA
ATOM     25  C   UNL     1      -2.993   8.179  26.293  0.00  0.00    +0.277 C 
ATOM     26  C   UNL     1      -4.159   7.198  26.017  0.00  0.00    +0.110 C 
ATOM     27  C   UNL     1      -5.451   7.945  25.624  0.00  0.00    +0.143 C 
ATOM     28  C   UNL     1      -5.194   8.916  24.471  0.00  0.00    +0.133 C 
BRANCH  28  29
ATOM     29  N   UNL     1      -6.411   9.684  24.163  0.00  0.00    -0.308 N 
ATOM     30  H   UNL     1      -6.823  10.233  24.905  0.00  0.00    +0.149 HD
ATOM     31  C   UNL     1      -7.007   9.704  22.968  0.00  0.00    +0.210 C 
ATOM     32  C   UNL     1      -6.370   8.838  21.865  0.00  0.00    +0.109 C 
ATOM     33  O   UNL     1      -8.017  10.369  22.735  0.00  0.00    -0.276 OA
ENDBRANCH  28  29
BRANCH  25  34
ATOM     34  C   UNL     1      -3.242   8.913  27.627  0.00  0.00    +0.414 C 
ATOM     35  O   UNL     1      -3.830   8.346  28.547  0.00  0.00    -0.240 OA
ATOM     36  O   UNL     1      -2.855  10.072  27.783  0.00  0.00    -0.240 OA
ENDBRANCH  25  34
BRANCH  25  37
ATOM     37  O   UNL     1      -1.763   7.415  26.378  0.00  0.00    -0.343 OA
ATOM     38  C   UNL     1      -1.916   5.985  26.186  0.00  0.00    +0.198 C 
ENDBRANCH  25  37
BRANCH  27  39
ATOM     39  O   UNL     1      -6.452   7.004  25.233  0.00  0.00    -0.390 OA
ATOM     40  H   UNL     1      -7.277   7.210  25.679  0.00  0.00    +0.210 HD
ENDBRANCH  27  39
ENDBRANCH  22  23
BRANCH  22  41
ATOM     41  O   UNL     1      -2.924  10.269  22.727  0.00  0.00    -0.387 OA
ATOM     42  H   UNL     1      -3.399  10.333  21.895  0.00  0.00    +0.210 HD
ENDBRANCH  22  41
ENDBRANCH   1  22
TORSDOF 15
