REMARK VINA RESULT:    -4.990      3.766      7.055
REMARK INTER + INTRA:         -13.104
REMARK INTER:                 -10.268
REMARK INTRA:                  -2.836
REMARK UNBOUND:                -3.885
REMARK  Name = lig_assembled_79.pdb
REMARK  20 active torsions:
REMARK  status: ('A' for Active; 'I' for Inactive)
REMARK    1  A    between atoms: _2  and  _10
REMARK    2  A    between atoms: _5  and  _26
REMARK    3  A    between atoms: _7  and  _8
REMARK    4  A    between atoms: _7  and  _26
REMARK    5  A    between atoms: _10  and  _11
REMARK    6  A    between atoms: _10  and  _12
REMARK    7  A    between atoms: _10  and  _13
REMARK    8  A    between atoms: _13  and  _14
REMARK    9  A    between atoms: _22  and  _42
REMARK   10  A    between atoms: _24  and  _30
REMARK   11  A    between atoms: _25  and  _29
REMARK   12  A    between atoms: _29  and  _30
REMARK   13  A    between atoms: _32  and  _33
REMARK   14  A    between atoms: _34  and  _35
REMARK   15  A    between atoms: _36  and  _38
REMARK   16  A    between atoms: _38  and  _39
REMARK   17  A    between atoms: _38  and  _40
REMARK   18  A    between atoms: _40  and  _41
REMARK   19  A    between atoms: _40  and  _42
REMARK   20  A    between atoms: _43  and  _45
REMARK                            x       y       z     vdW  Elec       q    Type
REMARK                         _______ _______ _______ _____ _____    ______ ____
ROOT
ATOM      1  C   UNL     1      -4.895  13.395  22.928  0.00  0.00    +0.401 C 
ATOM      2  O   UNL     1      -5.675  13.647  23.849  0.00  0.00    -0.226 OA
ATOM      3  N   UNL     1      -3.609  13.089  23.102  0.00  0.00    -0.279 N 
ATOM      4  H   UNL     1      -3.051  12.888  22.284  0.00  0.00    +0.152 HD
ENDROOT
BRANCH   3   5
ATOM      5  C   UNL     1      -2.958  13.029  24.417  0.00  0.00    +0.141 C 
BRANCH   5   6
ATOM      6  C   UNL     1      -3.291  11.738  25.157  0.00  0.00    +0.163 C 
BRANCH   6   7
ATOM      7  O   UNL     1      -2.179  10.830  25.088  0.00  0.00    -0.388 OA
ATOM      8  H   UNL     1      -1.757  10.774  25.949  0.00  0.00    +0.210 HD
ENDBRANCH   6   7
BRANCH   6   9
ATOM      9  C   UNL     1      -3.647  12.061  26.619  0.00  0.00    +0.175 C 
BRANCH   9  10
ATOM     10  C   UNL     1      -3.396  10.867  27.552  0.00  0.00    +0.176 C 
ATOM     11  O   UNL     1      -4.026   9.698  26.961  0.00  0.00    -0.332 OA
ATOM     12  C   UNL     1      -3.800   8.432  27.666  0.00  0.00    +0.277 C 
ATOM     13  C   UNL     1      -4.219   8.558  29.151  0.00  0.00    +0.110 C 
ATOM     14  C   UNL     1      -3.599   9.805  29.814  0.00  0.00    +0.143 C 
ATOM     15  C   UNL     1      -3.893  11.064  28.997  0.00  0.00    +0.133 C 
BRANCH  15  16
ATOM     16  N   UNL     1      -3.224  12.232  29.591  0.00  0.00    -0.308 N 
ATOM     17  H   UNL     1      -2.214  12.241  29.605  0.00  0.00    +0.149 HD
ATOM     18  C   UNL     1      -3.865  13.281  30.114  0.00  0.00    +0.210 C 
ATOM     19  C   UNL     1      -5.404  13.226  30.101  0.00  0.00    +0.109 C 
ATOM     20  O   UNL     1      -3.278  14.253  30.592  0.00  0.00    -0.276 OA
ENDBRANCH  15  16
BRANCH  12  21
ATOM     21  C   UNL     1      -2.317   8.016  27.582  0.00  0.00    +0.414 C 
ATOM     22  O   UNL     1      -1.798   7.383  28.500  0.00  0.00    -0.240 OA
ATOM     23  O   UNL     1      -1.640   8.314  26.597  0.00  0.00    -0.240 OA
ENDBRANCH  12  21
BRANCH  14  24
ATOM     24  O   UNL     1      -4.129   9.965  31.131  0.00  0.00    -0.390 OA
ATOM     25  H   UNL     1      -4.862   9.357  31.257  0.00  0.00    +0.210 HD
ENDBRANCH  14  24
BRANCH  12  26
ATOM     26  O   UNL     1      -4.628   7.417  27.041  0.00  0.00    -0.343 OA
ATOM     27  C   UNL     1      -5.422   6.625  27.960  0.00  0.00    +0.198 C 
ENDBRANCH  12  26
ENDBRANCH   9  10
BRANCH   9  28
ATOM     28  O   UNL     1      -5.021  12.485  26.713  0.00  0.00    -0.387 OA
ATOM     29  H   UNL     1      -5.502  11.888  27.291  0.00  0.00    +0.210 HD
ENDBRANCH   9  28
ENDBRANCH   6   9
ENDBRANCH   5   6
ENDBRANCH   3   5
BRANCH   1  30
ATOM     30  O   UNL     1      -5.378  13.421  21.582  0.00  0.00    -0.444 OA
BRANCH  30  31
ATOM     31  C   UNL     1      -4.401  12.844  20.712  0.00  0.00    +0.292 C 
BRANCH  31  33
ATOM     32  N   UNL     1      -6.234  12.223  19.182  0.00  0.00    -0.131 NA
ATOM     33  C   UNL     1      -5.047  11.907  19.775  0.00  0.00    +0.120 A 
ATOM     34  C   UNL     1      -4.649  10.659  19.351  0.00  0.00    +0.138 A 
ATOM     35  N   UNL     1      -5.588  10.295  18.426  0.00  0.00    -0.238 N 
ATOM     36  N   UNL     1      -6.581  11.218  18.396  0.00  0.00    -0.064 NA
BRANCH  35  37
ATOM     37  C   UNL     1      -5.763   9.027  17.659  0.00  0.00    +0.122 C 
ATOM     38  C   UNL     1      -6.969   9.247  16.715  0.00  0.00    +0.044 C 
ATOM     39  C   UNL     1      -5.973   7.940  18.731  0.00  0.00    +0.044 C 
BRANCH  37  40
ATOM     40  C   UNL     1      -4.549   8.668  16.778  0.00  0.00    +0.192 C 
ATOM     41  O   UNL     1      -3.813   7.725  17.085  0.00  0.00    -0.289 OA
BRANCH  40  42
ATOM     42  C   UNL     1      -4.192   9.435  15.549  0.00  0.00    +0.045 A 
ATOM     43  C   UNL     1      -3.929   8.758  14.363  0.00  0.00    +0.095 A 
ATOM     44  N   UNL     1      -3.600   9.650  13.388  0.00  0.00    -0.360 N 
ATOM     45  H   UNL     1      -3.355   9.413  12.436  0.00  0.00    +0.165 HD
ATOM     46  C   UNL     1      -3.637  10.926  13.888  0.00  0.00    +0.047 A 
ATOM     47  C   UNL     1      -3.359  12.135  13.234  0.00  0.00    +0.026 A 
ATOM     48  C   UNL     1      -3.460  13.318  13.964  0.00  0.00    +0.002 A 
ATOM     49  C   UNL     1      -3.830  13.291  15.299  0.00  0.00    +0.001 A 
ATOM     50  C   UNL     1      -4.104  12.074  15.934  0.00  0.00    +0.011 A 
ATOM     51  C   UNL     1      -4.011  10.842  15.237  0.00  0.00    +0.010 A 
ENDBRANCH  40  42
ENDBRANCH  37  40
ENDBRANCH  35  37
ENDBRANCH  31  33
ENDBRANCH  30  31
ENDBRANCH   1  30
TORSDOF 16
