REMARK VINA RESULT:    -5.484      3.035     10.924
REMARK INTER + INTRA:         -13.451
REMARK INTER:                 -10.389
REMARK INTRA:                  -3.061
REMARK UNBOUND:                -3.157
REMARK  Name = lig_assembled_64.pdb
REMARK  19 active torsions:
REMARK  status: ('A' for Active; 'I' for Inactive)
REMARK    1  A    between atoms: _2  and  _10
REMARK    2  A    between atoms: _5  and  _27
REMARK    3  A    between atoms: _7  and  _8
REMARK    4  A    between atoms: _7  and  _27
REMARK    5  A    between atoms: _12  and  _13
REMARK    6  A    between atoms: _13  and  _21
REMARK    7  A    between atoms: _14  and  _15
REMARK    8  A    between atoms: _23  and  _43
REMARK    9  A    between atoms: _25  and  _31
REMARK   10  A    between atoms: _26  and  _30
REMARK   11  A    between atoms: _30  and  _31
REMARK   12  A    between atoms: _33  and  _34
REMARK   13  A    between atoms: _35  and  _36
REMARK   14  A    between atoms: _37  and  _39
REMARK   15  A    between atoms: _39  and  _40
REMARK   16  A    between atoms: _39  and  _41
REMARK   17  A    between atoms: _41  and  _42
REMARK   18  A    between atoms: _41  and  _43
REMARK   19  A    between atoms: _44  and  _46
REMARK                            x       y       z     vdW  Elec       q    Type
REMARK                         _______ _______ _______ _____ _____    ______ ____
ROOT
ATOM      1  C   UNL     1      -7.587   9.627  20.489  0.00  0.00    +0.401 C 
ATOM      2  O   UNL     1      -7.010   8.574  20.210  0.00  0.00    -0.226 OA
ATOM      3  N   UNL     1      -7.942   9.978  21.726  0.00  0.00    -0.279 N 
ATOM      4  H   UNL     1      -8.403  10.867  21.856  0.00  0.00    +0.152 HD
ENDROOT
BRANCH   3   5
ATOM      5  C   UNL     1      -7.699   9.144  22.910  0.00  0.00    +0.141 C 
BRANCH   5   6
ATOM      6  C   UNL     1      -6.653   9.758  23.834  0.00  0.00    +0.163 C 
BRANCH   6   7
ATOM      7  O   UNL     1      -7.181   9.878  25.165  0.00  0.00    -0.388 OA
ATOM      8  H   UNL     1      -8.124  10.057  25.120  0.00  0.00    +0.210 HD
ENDBRANCH   6   7
BRANCH   6   9
ATOM      9  C   UNL     1      -5.383   8.889  23.822  0.00  0.00    +0.175 C 
BRANCH   9  10
ATOM     10  C   UNL     1      -4.160   9.646  24.359  0.00  0.00    +0.176 C 
ATOM     11  O   UNL     1      -4.335   9.820  25.792  0.00  0.00    -0.332 OA
ATOM     12  C   UNL     1      -3.207  10.435  26.499  0.00  0.00    +0.277 C 
ATOM     13  C   UNL     1      -2.836  11.791  25.849  0.00  0.00    +0.110 C 
ATOM     14  C   UNL     1      -2.670  11.662  24.320  0.00  0.00    +0.143 C 
ATOM     15  C   UNL     1      -3.898  11.007  23.688  0.00  0.00    +0.133 C 
BRANCH  15  16
ATOM     16  N   UNL     1      -3.692  10.811  22.244  0.00  0.00    -0.308 N 
ATOM     17  H   UNL     1      -3.011  10.124  21.954  0.00  0.00    +0.149 HD
ATOM     18  C   UNL     1      -4.347  11.482  21.292  0.00  0.00    +0.210 C 
ATOM     19  C   UNL     1      -5.360  12.541  21.767  0.00  0.00    +0.109 C 
ATOM     20  O   UNL     1      -4.164  11.286  20.090  0.00  0.00    -0.276 OA
ENDBRANCH  15  16
BRANCH  12  21
ATOM     21  C   UNL     1      -1.979   9.502  26.485  0.00  0.00    +0.414 C 
ATOM     22  O   UNL     1      -2.128   8.281  26.464  0.00  0.00    -0.240 OA
ATOM     23  O   UNL     1      -0.840   9.970  26.494  0.00  0.00    -0.240 OA
ENDBRANCH  12  21
BRANCH  12  24
ATOM     24  O   UNL     1      -3.617  10.683  27.869  0.00  0.00    -0.343 OA
ATOM     25  C   UNL     1      -4.729   9.874  28.331  0.00  0.00    +0.198 C 
ENDBRANCH  12  24
BRANCH  14  26
ATOM     26  O   UNL     1      -2.478  12.956  23.746  0.00  0.00    -0.390 OA
ATOM     27  H   UNL     1      -3.253  13.498  23.911  0.00  0.00    +0.210 HD
ENDBRANCH  14  26
ENDBRANCH   9  10
BRANCH   9  28
ATOM     28  O   UNL     1      -5.123   8.407  22.489  0.00  0.00    -0.387 OA
ATOM     29  H   UNL     1      -5.097   7.448  22.494  0.00  0.00    +0.210 HD
ENDBRANCH   9  28
ENDBRANCH   6   9
ENDBRANCH   5   6
ENDBRANCH   3   5
BRANCH   1  30
ATOM     30  O   UNL     1      -7.902  10.546  19.440  0.00  0.00    -0.444 OA
BRANCH  30  31
ATOM     31  C   UNL     1      -7.748   9.897  18.175  0.00  0.00    +0.292 C 
BRANCH  31  33
ATOM     32  N   UNL     1      -6.423  11.905  17.567  0.00  0.00    -0.131 NA
ATOM     33  C   UNL     1      -6.738  10.593  17.356  0.00  0.00    +0.121 A 
ATOM     34  C   UNL     1      -5.979  10.113  16.314  0.00  0.00    +0.143 A 
ATOM     35  N   UNL     1      -5.213  11.181  15.911  0.00  0.00    -0.220 N 
ATOM     36  N   UNL     1      -5.493  12.254  16.687  0.00  0.00    -0.060 NA
BRANCH  35  37
ATOM     37  C   UNL     1      -4.257  11.233  14.867  0.00  0.00    +0.071 A 
ATOM     38  C   UNL     1      -3.804  10.062  14.270  0.00  0.00    +0.063 A 
ATOM     39  CA  UNL     1      -2.872  10.182  13.258  0.00  0.00    +0.150 A 
ATOM     40  N   UNL     1      -2.359  11.362  12.806  0.00  0.00    -0.240 NA
ATOM     41  C   UNL     1      -2.797  12.502  13.405  0.00  0.00    +0.074 A 
ATOM     42  C   UNL     1      -3.753  12.467  14.426  0.00  0.00    +0.056 A 
BRANCH  41  43
ATOM     43  C   UNL     1      -2.177  13.759  12.920  0.00  0.00    +0.000 A 
ATOM     44  C   UNL     1      -2.603  15.024  13.368  0.00  0.00    +0.010 A 
ATOM     45  C   UNL     1      -1.984  16.203  12.932  0.00  0.00    +0.001 A 
ATOM     46  C   UNL     1      -0.923  16.145  12.035  0.00  0.00    +0.000 A 
ATOM     47  C   UNL     1      -0.485  14.910  11.568  0.00  0.00    +0.001 A 
ATOM     48  C   UNL     1      -1.106  13.734  12.005  0.00  0.00    +0.010 A 
ENDBRANCH  41  43
BRANCH  39  49
ATOM     49  C   UNL     1      -2.357   8.952  12.590  0.00  0.00    +0.355 C 
ATOM     50  OXT UNL     1      -1.400   8.305  12.977  0.00  0.00    -0.243 OA
BRANCH  49  51
ATOM     51  O   UNL     1      -3.097   8.655  11.497  0.00  0.00    -0.476 OA
ATOM     52  H   UNL     1      -3.442   9.492  11.107  0.00  0.00    +0.295 HD
ENDBRANCH  49  51
ENDBRANCH  39  49
ENDBRANCH  35  37
ENDBRANCH  31  33
ENDBRANCH  30  31
ENDBRANCH   1  30
TORSDOF 17
