REMARK VINA RESULT:    -5.341      8.590     12.070
REMARK INTER + INTRA:         -11.666
REMARK INTER:                  -8.209
REMARK INTRA:                  -3.457
REMARK UNBOUND:                -1.954
REMARK  Name = lig_assembled_60.pdb
REMARK  18 active torsions:
REMARK  status: ('A' for Active; 'I' for Inactive)
REMARK    1  A    between atoms: _2  and  _10
REMARK    2  A    between atoms: _3  and  _41
REMARK    3  A    between atoms: _5  and  _21
REMARK    4  A    between atoms: _7  and  _8
REMARK    5  A    between atoms: _7  and  _21
REMARK    6  A    between atoms: _13  and  _41
REMARK    7  A    between atoms: _17  and  _37
REMARK    8  A    between atoms: _19  and  _25
REMARK    9  A    between atoms: _20  and  _24
REMARK   10  A    between atoms: _24  and  _25
REMARK   11  A    between atoms: _27  and  _28
REMARK   12  A    between atoms: _29  and  _30
REMARK   13  A    between atoms: _31  and  _33
REMARK   14  A    between atoms: _33  and  _34
REMARK   15  A    between atoms: _33  and  _35
REMARK   16  A    between atoms: _35  and  _36
REMARK   17  A    between atoms: _35  and  _37
REMARK   18  A    between atoms: _38  and  _40
REMARK                            x       y       z     vdW  Elec       q    Type
REMARK                         _______ _______ _______ _____ _____    ______ ____
ROOT
ATOM      1  C   UNL     1      -3.681  12.762  23.002  0.00  0.00    +0.141 C 
ENDROOT
BRANCH   1   4
ATOM      2  C   UNL     1      -5.870  13.899  23.143  0.00  0.00    +0.401 C 
ATOM      3  O   UNL     1      -5.525  14.853  22.442  0.00  0.00    -0.226 OA
ATOM      4  N   UNL     1      -5.070  12.880  23.461  0.00  0.00    -0.279 N 
ATOM      5  H   UNL     1      -5.442  12.149  24.050  0.00  0.00    +0.152 HD
BRANCH   2   6
ATOM      6  O   UNL     1      -7.202  13.864  23.662  0.00  0.00    -0.444 OA
BRANCH   6   7
ATOM      7  C   UNL     1      -7.422  15.007  24.492  0.00  0.00    +0.292 C 
BRANCH   7   9
ATOM      8  N   UNL     1      -8.082  14.965  26.878  0.00  0.00    -0.131 NA
ATOM      9  C   UNL     1      -7.170  14.671  25.905  0.00  0.00    +0.121 A 
ATOM     10  C   UNL     1      -6.089  14.043  26.479  0.00  0.00    +0.143 A 
ATOM     11  N   UNL     1      -6.404  13.942  27.816  0.00  0.00    -0.220 N 
ATOM     12  N   UNL     1      -7.605  14.529  28.036  0.00  0.00    -0.060 NA
BRANCH  11  13
ATOM     13  C   UNL     1      -5.672  13.305  28.852  0.00  0.00    +0.067 A 
ATOM     14  C   UNL     1      -5.968  13.565  30.199  0.00  0.00    +0.030 A 
ATOM     15  C   UNL     1      -5.197  12.987  31.209  0.00  0.00    +0.030 A 
ATOM     16  C   UNL     1      -4.139  12.137  30.876  0.00  0.00    +0.105 A 
ATOM     17  C   UNL     1      -3.846  11.858  29.538  0.00  0.00    +0.030 A 
ATOM     18  C   UNL     1      -4.618  12.437  28.526  0.00  0.00    +0.030 A 
BRANCH  16  19
ATOM     19  S   UNL     1      -3.123  11.474  32.162  0.00  0.00    +0.056 S 
ATOM     20  O   UNL     1      -1.919  12.264  32.272  0.00  0.00    -0.153 OA
ATOM     21  O   UNL     1      -3.951  11.157  33.302  0.00  0.00    -0.153 OA
BRANCH  19  22
ATOM     22  N   UNL     1      -2.656  10.005  31.503  0.00  0.00    -0.204 NA
ATOM     23  H   UNL     1      -1.641   9.977  31.402  0.00  0.00    +0.144 HD
ATOM     24  H   UNL     1      -3.162   9.840  30.632  0.00  0.00    +0.144 HD
ENDBRANCH  19  22
ENDBRANCH  16  19
ENDBRANCH  11  13
ENDBRANCH   7   9
ENDBRANCH   6   7
ENDBRANCH   2   6
ENDBRANCH   1   4
BRANCH   1  25
ATOM     25  C   UNL     1      -3.016  11.493  23.525  0.00  0.00    +0.163 C 
BRANCH  25  26
ATOM     26  O   UNL     1      -2.227  11.795  24.688  0.00  0.00    -0.388 OA
ATOM     27  H   UNL     1      -2.041  10.985  25.169  0.00  0.00    +0.210 HD
ENDBRANCH  25  26
BRANCH  25  28
ATOM     28  C   UNL     1      -4.093  10.444  23.848  0.00  0.00    +0.175 C 
BRANCH  28  29
ATOM     29  C   UNL     1      -3.945   9.882  25.270  0.00  0.00    +0.176 C 
ATOM     30  O   UNL     1      -2.969   8.805  25.226  0.00  0.00    -0.332 OA
ATOM     31  C   UNL     1      -2.618   8.215  26.521  0.00  0.00    +0.277 C 
ATOM     32  C   UNL     1      -3.891   7.737  27.261  0.00  0.00    +0.110 C 
ATOM     33  C   UNL     1      -4.971   8.838  27.305  0.00  0.00    +0.143 C 
ATOM     34  C   UNL     1      -5.256   9.384  25.906  0.00  0.00    +0.133 C 
BRANCH  34  35
ATOM     35  N   UNL     1      -6.222  10.492  25.972  0.00  0.00    -0.308 N 
ATOM     36  H   UNL     1      -5.954  11.322  26.482  0.00  0.00    +0.149 HD
ATOM     37  C   UNL     1      -7.430  10.472  25.401  0.00  0.00    +0.210 C 
ATOM     38  C   UNL     1      -7.818   9.184  24.652  0.00  0.00    +0.109 C 
ATOM     39  O   UNL     1      -8.213  11.421  25.460  0.00  0.00    -0.276 OA
ENDBRANCH  34  35
BRANCH  31  40
ATOM     40  C   UNL     1      -1.862   9.233  27.400  0.00  0.00    +0.414 C 
ATOM     41  O   UNL     1      -1.932   9.166  28.626  0.00  0.00    -0.240 OA
ATOM     42  O   UNL     1      -1.183  10.121  26.883  0.00  0.00    -0.240 OA
ENDBRANCH  31  40
BRANCH  33  43
ATOM     43  O   UNL     1      -6.176   8.309  27.859  0.00  0.00    -0.390 OA
ATOM     44  H   UNL     1      -6.335   7.432  27.503  0.00  0.00    +0.210 HD
ENDBRANCH  33  43
BRANCH  31  45
ATOM     45  O   UNL     1      -1.773   7.061  26.274  0.00  0.00    -0.343 OA
ATOM     46  C   UNL     1      -2.000   5.935  27.158  0.00  0.00    +0.198 C 
ENDBRANCH  31  45
ENDBRANCH  28  29
BRANCH  28  47
ATOM     47  O   UNL     1      -4.048   9.373  22.884  0.00  0.00    -0.387 OA
ATOM     48  H   UNL     1      -3.158   9.014  22.845  0.00  0.00    +0.210 HD
ENDBRANCH  28  47
ENDBRANCH  25  28
ENDBRANCH   1  25
TORSDOF 16
