REMARK VINA RESULT:    -4.912      2.718      4.391
REMARK INTER + INTRA:         -11.472
REMARK INTER:                  -8.651
REMARK INTRA:                  -2.821
REMARK UNBOUND:                -2.541
REMARK  Name = lig_assembled_23.pdb
REMARK  18 active torsions:
REMARK  status: ('A' for Active; 'I' for Inactive)
REMARK    1  A    between atoms: _2  and  _10
REMARK    2  A    between atoms: _3  and  _41
REMARK    3  A    between atoms: _5  and  _21
REMARK    4  A    between atoms: _7  and  _8
REMARK    5  A    between atoms: _7  and  _21
REMARK    6  A    between atoms: _12  and  _41
REMARK    7  A    between atoms: _17  and  _37
REMARK    8  A    between atoms: _19  and  _25
REMARK    9  A    between atoms: _20  and  _24
REMARK   10  A    between atoms: _24  and  _25
REMARK   11  A    between atoms: _27  and  _28
REMARK   12  A    between atoms: _29  and  _30
REMARK   13  A    between atoms: _31  and  _33
REMARK   14  A    between atoms: _33  and  _34
REMARK   15  A    between atoms: _33  and  _35
REMARK   16  A    between atoms: _35  and  _36
REMARK   17  A    between atoms: _35  and  _37
REMARK   18  A    between atoms: _38  and  _40
REMARK                            x       y       z     vdW  Elec       q    Type
REMARK                         _______ _______ _______ _____ _____    ______ ____
ROOT
ATOM      1  C   UNL     1      -3.322  13.129  24.224  0.00  0.00    +0.141 C 
ENDROOT
BRANCH   1   4
ATOM      2  C   UNL     1      -4.416  14.204  22.287  0.00  0.00    +0.401 C 
ATOM      3  O   UNL     1      -3.721  15.222  22.340  0.00  0.00    -0.226 OA
ATOM      4  N   UNL     1      -4.301  13.179  23.131  0.00  0.00    -0.279 N 
ATOM      5  H   UNL     1      -4.923  12.392  23.013  0.00  0.00    +0.152 HD
BRANCH   2   6
ATOM      6  O   UNL     1      -5.414  14.097  21.268  0.00  0.00    -0.444 OA
BRANCH   6   7
ATOM      7  C   UNL     1      -6.016  12.801  21.324  0.00  0.00    +0.292 C 
BRANCH   7   9
ATOM      8  N   UNL     1      -6.894  12.399  19.047  0.00  0.00    -0.131 NA
ATOM      9  C   UNL     1      -5.951  12.150  20.003  0.00  0.00    +0.121 A 
ATOM     10  C   UNL     1      -5.032  11.254  19.504  0.00  0.00    +0.143 A 
ATOM     11  N   UNL     1      -5.453  10.989  18.222  0.00  0.00    -0.220 N 
ATOM     12  N   UNL     1      -6.587  11.689  17.971  0.00  0.00    -0.060 NA
BRANCH  11  13
ATOM     13  C   UNL     1      -4.873  10.132  17.252  0.00  0.00    +0.069 A 
ATOM     14  C   UNL     1      -4.251  10.688  16.125  0.00  0.00    +0.056 A 
ATOM     15  C   UNL     1      -3.709   9.845  15.148  0.00  0.00    +0.107 A 
ATOM     16  C   UNL     1      -3.754   8.458  15.293  0.00  0.00    +0.028 A 
ATOM     17  C   UNL     1      -4.360   7.907  16.422  0.00  0.00    +0.004 A 
ATOM     18  C   UNL     1      -4.922   8.738  17.397  0.00  0.00    +0.028 A 
BRANCH  15  19
ATOM     19  S   UNL     1      -2.980  10.562  13.707  0.00  0.00    +0.056 S 
ATOM     20  O   UNL     1      -1.755   9.859  13.406  0.00  0.00    -0.153 OA
ATOM     21  O   UNL     1      -4.008  10.797  12.719  0.00  0.00    -0.153 OA
BRANCH  19  22
ATOM     22  N   UNL     1      -2.537  12.084  14.259  0.00  0.00    -0.204 NA
ATOM     23  H   UNL     1      -2.520  12.094  15.279  0.00  0.00    +0.144 HD
ATOM     24  H   UNL     1      -3.143  12.795  13.847  0.00  0.00    +0.144 HD
ENDBRANCH  19  22
ENDBRANCH  15  19
ENDBRANCH  11  13
ENDBRANCH   7   9
ENDBRANCH   6   7
ENDBRANCH   2   6
ENDBRANCH   1   4
BRANCH   1  25
ATOM     25  C   UNL     1      -2.994  11.696  24.629  0.00  0.00    +0.163 C 
BRANCH  25  26
ATOM     26  O   UNL     1      -3.223  11.518  26.036  0.00  0.00    -0.388 OA
ATOM     27  H   UNL     1      -2.733  10.753  26.347  0.00  0.00    +0.210 HD
ENDBRANCH  25  26
BRANCH  25  28
ATOM     28  C   UNL     1      -3.852  10.720  23.805  0.00  0.00    +0.175 C 
BRANCH  28  29
ATOM     29  C   UNL     1      -4.259   9.481  24.616  0.00  0.00    +0.176 C 
ATOM     30  O   UNL     1      -3.044   8.835  25.086  0.00  0.00    -0.332 OA
ATOM     31  C   UNL     1      -3.240   7.685  25.973  0.00  0.00    +0.277 C 
ATOM     32  C   UNL     1      -4.164   6.638  25.306  0.00  0.00    +0.110 C 
ATOM     33  C   UNL     1      -5.456   7.283  24.762  0.00  0.00    +0.143 C 
ATOM     34  C   UNL     1      -5.136   8.471  23.853  0.00  0.00    +0.133 C 
BRANCH  34  35
ATOM     35  N   UNL     1      -6.374   9.131  23.411  0.00  0.00    -0.308 N 
ATOM     36  H   UNL     1      -6.920   9.623  24.105  0.00  0.00    +0.149 HD
ATOM     37  C   UNL     1      -6.825   9.121  22.154  0.00  0.00    +0.210 C 
ATOM     38  C   UNL     1      -5.985   8.340  21.126  0.00  0.00    +0.109 C 
ATOM     39  O   UNL     1      -7.859   9.695  21.810  0.00  0.00    -0.276 OA
ENDBRANCH  34  35
BRANCH  31  40
ATOM     40  C   UNL     1      -3.851   8.130  27.318  0.00  0.00    +0.414 C 
ATOM     41  O   UNL     1      -4.818   7.531  27.788  0.00  0.00    -0.240 OA
ATOM     42  O   UNL     1      -3.378   9.086  27.933  0.00  0.00    -0.240 OA
ENDBRANCH  31  40
BRANCH  33  43
ATOM     43  O   UNL     1      -6.205   6.316  24.025  0.00  0.00    -0.390 OA
ATOM     44  H   UNL     1      -5.954   5.433  24.307  0.00  0.00    +0.210 HD
ENDBRANCH  33  43
BRANCH  31  45
ATOM     45  O   UNL     1      -1.945   7.071  26.205  0.00  0.00    -0.343 OA
ATOM     46  C   UNL     1      -1.951   5.967  27.145  0.00  0.00    +0.198 C 
ENDBRANCH  31  45
ENDBRANCH  28  29
BRANCH  28  47
ATOM     47  O   UNL     1      -3.145  10.323  22.613  0.00  0.00    -0.387 OA
ATOM     48  H   UNL     1      -3.758  10.282  21.875  0.00  0.00    +0.210 HD
ENDBRANCH  28  47
ENDBRANCH  25  28
ENDBRANCH   1  25
TORSDOF 16
