REMARK VINA RESULT:    -4.371      2.642      5.378
REMARK INTER + INTRA:         -11.479
REMARK INTER:                  -7.307
REMARK INTRA:                  -4.173
REMARK UNBOUND:                -3.914
REMARK  Name = lig_assembled_20.pdb
REMARK  16 active torsions:
REMARK  status: ('A' for Active; 'I' for Inactive)
REMARK    1  A    between atoms: _2  and  _11
REMARK    2  A    between atoms: _6  and  _21
REMARK    3  A    between atoms: _8  and  _9
REMARK    4  A    between atoms: _8  and  _21
REMARK    5  A    between atoms: _17  and  _37
REMARK    6  A    between atoms: _19  and  _25
REMARK    7  A    between atoms: _20  and  _24
REMARK    8  A    between atoms: _24  and  _25
REMARK    9  A    between atoms: _27  and  _28
REMARK   10  A    between atoms: _29  and  _30
REMARK   11  A    between atoms: _31  and  _33
REMARK   12  A    between atoms: _33  and  _34
REMARK   13  A    between atoms: _33  and  _35
REMARK   14  A    between atoms: _35  and  _36
REMARK   15  A    between atoms: _35  and  _37
REMARK   16  A    between atoms: _38  and  _40
REMARK                            x       y       z     vdW  Elec       q    Type
REMARK                         _______ _______ _______ _____ _____    ______ ____
ROOT
ATOM      1  C   UNL     1      -3.038  11.531  22.783  0.00  0.00    +0.163 C 
ENDROOT
BRANCH   1   2
ATOM      2  O   UNL     1      -2.505  12.100  23.990  0.00  0.00    -0.388 OA
ATOM      3  H   UNL     1      -1.634  11.733  24.160  0.00  0.00    +0.210 HD
ENDBRANCH   1   2
BRANCH   1   4
ATOM      4  C   UNL     1      -3.832  12.584  22.016  0.00  0.00    +0.141 C 
BRANCH   4   7
ATOM      5  C   UNL     1      -5.616  13.842  23.174  0.00  0.00    +0.401 C 
ATOM      6  O   UNL     1      -4.913  14.835  23.378  0.00  0.00    -0.226 OA
ATOM      7  N   UNL     1      -5.190  12.742  22.551  0.00  0.00    -0.279 N 
ATOM      8  H   UNL     1      -5.838  11.976  22.440  0.00  0.00    +0.152 HD
BRANCH   5   9
ATOM      9  O   UNL     1      -6.971  13.845  23.630  0.00  0.00    -0.444 OA
BRANCH   9  10
ATOM     10  C   UNL     1      -7.069  14.610  24.834  0.00  0.00    +0.292 C 
BRANCH  10  12
ATOM     11  N   UNL     1      -7.725  12.726  26.306  0.00  0.00    -0.131 NA
ATOM     12  C   UNL     1      -6.869  13.747  26.014  0.00  0.00    +0.121 A 
ATOM     13  C   UNL     1      -5.879  13.788  26.965  0.00  0.00    +0.143 A 
ATOM     14  N   UNL     1      -6.170  12.761  27.833  0.00  0.00    -0.220 N 
ATOM     15  N   UNL     1      -7.295  12.131  27.413  0.00  0.00    -0.060 NA
BRANCH  14  16
ATOM     16  C   UNL     1      -5.463  12.361  28.996  0.00  0.00    +0.068 A 
ATOM     17  C   UNL     1      -4.404  13.150  29.476  0.00  0.00    +0.030 A 
ATOM     18  C   UNL     1      -3.688  12.786  30.625  0.00  0.00    +0.030 A 
ATOM     19  C   UNL     1      -4.072  11.607  31.270  0.00  0.00    +0.066 A 
ATOM     20  C   UNL     1      -5.112  10.804  30.820  0.00  0.00    +0.021 A 
ATOM     21  C   UNL     1      -5.164   9.735  31.740  0.00  0.00    +0.142 A 
ATOM     22  N   UNL     1      -4.242   9.838  32.700  0.00  0.00    -0.181 NA
ATOM     23  N   UNL     1      -3.598  10.978  32.393  0.00  0.00    -0.277 N 
ATOM     24  H   UNL     1      -2.836  11.277  32.990  0.00  0.00    +0.189 HD
ATOM     25  C   UNL     1      -5.825  11.177  29.666  0.00  0.00    +0.039 A 
ENDBRANCH  14  16
ENDBRANCH  10  12
ENDBRANCH   9  10
ENDBRANCH   5   9
ENDBRANCH   4   7
ENDBRANCH   1   4
BRANCH   1  26
ATOM     26  C   UNL     1      -3.947  10.330  23.096  0.00  0.00    +0.175 C 
BRANCH  26  27
ATOM     27  C   UNL     1      -4.051  10.062  24.605  0.00  0.00    +0.176 C 
ATOM     28  O   UNL     1      -2.959   9.178  24.979  0.00  0.00    -0.332 OA
ATOM     29  C   UNL     1      -2.835   8.894  26.412  0.00  0.00    +0.277 C 
ATOM     30  C   UNL     1      -4.170   8.343  26.972  0.00  0.00    +0.110 C 
ATOM     31  C   UNL     1      -5.365   9.234  26.573  0.00  0.00    +0.143 C 
ATOM     32  C   UNL     1      -5.396   9.466  25.062  0.00  0.00    +0.133 C 
BRANCH  32  33
ATOM     33  N   UNL     1      -6.488  10.386  24.704  0.00  0.00    -0.308 N 
ATOM     34  H   UNL     1      -6.494  11.300  25.133  0.00  0.00    +0.149 HD
ATOM     35  C   UNL     1      -7.471  10.091  23.850  0.00  0.00    +0.210 C 
ATOM     36  C   UNL     1      -7.448   8.679  23.233  0.00  0.00    +0.109 C 
ATOM     37  O   UNL     1      -8.364  10.886  23.558  0.00  0.00    -0.276 OA
ENDBRANCH  32  33
BRANCH  29  38
ATOM     38  C   UNL     1      -2.436  10.166  27.189  0.00  0.00    +0.414 C 
ATOM     39  O   UNL     1      -2.616  10.233  28.404  0.00  0.00    -0.240 OA
ATOM     40  O   UNL     1      -1.935  11.125  26.600  0.00  0.00    -0.240 OA
ENDBRANCH  29  38
BRANCH  31  41
ATOM     41  O   UNL     1      -6.586   8.612  26.978  0.00  0.00    -0.390 OA
ATOM     42  H   UNL     1      -7.153   9.262  27.397  0.00  0.00    +0.210 HD
ENDBRANCH  31  41
BRANCH  29  43
ATOM     43  O   UNL     1      -1.814   7.878  26.582  0.00  0.00    -0.343 OA
ATOM     44  C   UNL     1      -2.279   6.512  26.437  0.00  0.00    +0.198 C 
ENDBRANCH  29  43
ENDBRANCH  26  27
BRANCH  26  45
ATOM     45  O   UNL     1      -3.467   9.153  22.415  0.00  0.00    -0.387 OA
ATOM     46  H   UNL     1      -4.204   8.566  22.231  0.00  0.00    +0.210 HD
ENDBRANCH  26  45
ENDBRANCH   1  26
TORSDOF 14
