REMARK VINA RESULT:    -4.218     11.151     14.366
REMARK INTER + INTRA:         -10.297
REMARK INTER:                  -7.271
REMARK INTRA:                  -3.025
REMARK UNBOUND:                -2.997
REMARK  Name = lig_assembled_15.pdb
REMARK  16 active torsions:
REMARK  status: ('A' for Active; 'I' for Inactive)
REMARK    1  A    between atoms: _2  and  _9
REMARK    2  A    between atoms: _4  and  _18
REMARK    3  A    between atoms: _6  and  _7
REMARK    4  A    between atoms: _6  and  _18
REMARK    5  A    between atoms: _14  and  _34
REMARK    6  A    between atoms: _16  and  _22
REMARK    7  A    between atoms: _17  and  _21
REMARK    8  A    between atoms: _21  and  _22
REMARK    9  A    between atoms: _24  and  _25
REMARK   10  A    between atoms: _26  and  _27
REMARK   11  A    between atoms: _28  and  _30
REMARK   12  A    between atoms: _30  and  _31
REMARK   13  A    between atoms: _30  and  _32
REMARK   14  A    between atoms: _32  and  _33
REMARK   15  A    between atoms: _32  and  _34
REMARK   16  A    between atoms: _35  and  _37
REMARK                            x       y       z     vdW  Elec       q    Type
REMARK                         _______ _______ _______ _____ _____    ______ ____
ROOT
ATOM      1  C   UNL     1      -5.699   8.373  10.978  0.00  0.00    +0.163 C 
ENDROOT
BRANCH   1   2
ATOM      2  O   UNL     1      -4.560   7.517  11.162  0.00  0.00    -0.388 OA
ATOM      3  H   UNL     1      -4.851   6.660  11.480  0.00  0.00    +0.210 HD
ENDBRANCH   1   2
BRANCH   1   4
ATOM      4  C   UNL     1      -5.820   8.772   9.510  0.00  0.00    +0.141 C 
BRANCH   4   7
ATOM      5  C   UNL     1      -3.619   9.553   8.703  0.00  0.00    +0.401 C 
ATOM      6  O   UNL     1      -3.161   8.416   8.566  0.00  0.00    -0.226 OA
ATOM      7  N   UNL     1      -4.851   9.812   9.144  0.00  0.00    -0.279 N 
ATOM      8  H   UNL     1      -5.133  10.778   9.231  0.00  0.00    +0.152 HD
BRANCH   5   9
ATOM      9  O   UNL     1      -2.797  10.677   8.378  0.00  0.00    -0.444 OA
BRANCH   9  10
ATOM     10  C   UNL     1      -3.363  11.862   8.945  0.00  0.00    +0.292 C 
BRANCH  10  12
ATOM     11  N   UNL     1      -1.756  11.904  10.826  0.00  0.00    -0.131 NA
ATOM     12  C   UNL     1      -2.369  12.549   9.791  0.00  0.00    +0.121 A 
ATOM     13  C   UNL     1      -1.892  13.839   9.721  0.00  0.00    +0.143 A 
ATOM     14  N   UNL     1      -0.958  13.927  10.727  0.00  0.00    -0.220 N 
ATOM     15  N   UNL     1      -0.905  12.748  11.393  0.00  0.00    -0.060 NA
BRANCH  14  16
ATOM     16  C   UNL     1      -0.117  15.021  11.063  0.00  0.00    +0.067 A 
ATOM     17  C   UNL     1      -0.656  16.284  11.346  0.00  0.00    +0.029 A 
ATOM     18  C   UNL     1       0.191  17.359  11.635  0.00  0.00    +0.017 A 
ATOM     19  C   UNL     1       1.572  17.173  11.646  0.00  0.00    +0.018 A 
ATOM     20 BR   UNL     1       2.710  18.638  12.011  0.00  0.00    -0.050 Br
ATOM     21  C   UNL     1       2.118  15.919  11.381  0.00  0.00    +0.017 A 
ATOM     22  C   UNL     1       1.276  14.842  11.093  0.00  0.00    +0.029 A 
ENDBRANCH  14  16
ENDBRANCH  10  12
ENDBRANCH   9  10
ENDBRANCH   5   9
ENDBRANCH   4   7
ENDBRANCH   1   4
BRANCH   1  23
ATOM     23  C   UNL     1      -5.583   9.638  11.846  0.00  0.00    +0.175 C 
BRANCH  23  24
ATOM     24  C   UNL     1      -4.325   9.621  12.727  0.00  0.00    +0.176 C 
ATOM     25  O   UNL     1      -4.397   8.450  13.586  0.00  0.00    -0.332 OA
ATOM     26  C   UNL     1      -3.222   8.209  14.429  0.00  0.00    +0.277 C 
ATOM     27  C   UNL     1      -2.900   9.463  15.279  0.00  0.00    +0.110 C 
ATOM     28  C   UNL     1      -2.844  10.739  14.413  0.00  0.00    +0.143 C 
ATOM     29  C   UNL     1      -4.114  10.889  13.575  0.00  0.00    +0.133 C 
BRANCH  29  30
ATOM     30  N   UNL     1      -4.013  12.060  12.690  0.00  0.00    -0.308 N 
ATOM     31  H   UNL     1      -3.311  12.043  11.963  0.00  0.00    +0.149 HD
ATOM     32  C   UNL     1      -4.787  13.145  12.785  0.00  0.00    +0.210 C 
ATOM     33  C   UNL     1      -5.828  13.151  13.920  0.00  0.00    +0.109 C 
ATOM     34  O   UNL     1      -4.689  14.105  12.021  0.00  0.00    -0.276 OA
ENDBRANCH  29  30
BRANCH  26  35
ATOM     35  C   UNL     1      -1.996   7.842  13.568  0.00  0.00    +0.414 C 
ATOM     36  O   UNL     1      -0.954   7.465  14.101  0.00  0.00    -0.240 OA
ATOM     37  O   UNL     1      -2.050   7.922  12.340  0.00  0.00    -0.240 OA
ENDBRANCH  26  35
BRANCH  28  38
ATOM     38  O   UNL     1      -2.697  11.885  15.252  0.00  0.00    -0.390 OA
ATOM     39  H   UNL     1      -2.479  11.603  16.144  0.00  0.00    +0.210 HD
ENDBRANCH  28  38
BRANCH  26  40
ATOM     40  O   UNL     1      -3.532   7.114  15.329  0.00  0.00    -0.343 OA
ATOM     41  C   UNL     1      -4.132   5.955  14.699  0.00  0.00    +0.198 C 
ENDBRANCH  26  40
ENDBRANCH  23  24
BRANCH  23  42
ATOM     42  O   UNL     1      -6.760   9.789  12.664  0.00  0.00    -0.387 OA
ATOM     43  H   UNL     1      -7.299   8.996  12.599  0.00  0.00    +0.210 HD
ENDBRANCH  23  42
ENDBRANCH   1  23
TORSDOF 14
