REMARK VINA RESULT:    -4.211      3.688     10.627
REMARK INTER + INTRA:         -13.620
REMARK INTER:                 -10.281
REMARK INTRA:                  -3.338
REMARK UNBOUND:                -3.746
REMARK  Name = lig_assembled_30.pdb
REMARK  27 active torsions:
REMARK  status: ('A' for Active; 'I' for Inactive)
REMARK    1  A    between atoms: _2  and  _9
REMARK    2  A    between atoms: _4  and  _25
REMARK    3  A    between atoms: _5  and  _18
REMARK    4  A    between atoms: _5  and  _19
REMARK    5  A    between atoms: _6  and  _7
REMARK    6  A    between atoms: _6  and  _25
REMARK    7  A    between atoms: _9  and  _10
REMARK    8  A    between atoms: _10  and  _11
REMARK    9  A    between atoms: _11  and  _12
REMARK   10  A    between atoms: _12  and  _13
REMARK   11  A    between atoms: _13  and  _14
REMARK   12  A    between atoms: _14  and  _15
REMARK   13  A    between atoms: _15  and  _16
REMARK   14  A    between atoms: _16  and  _17
REMARK   15  A    between atoms: _17  and  _18
REMARK   16  A    between atoms: _21  and  _41
REMARK   17  A    between atoms: _23  and  _29
REMARK   18  A    between atoms: _24  and  _28
REMARK   19  A    between atoms: _28  and  _29
REMARK   20  A    between atoms: _31  and  _32
REMARK   21  A    between atoms: _33  and  _34
REMARK   22  A    between atoms: _35  and  _37
REMARK   23  A    between atoms: _37  and  _38
REMARK   24  A    between atoms: _37  and  _39
REMARK   25  A    between atoms: _39  and  _40
REMARK   26  A    between atoms: _39  and  _41
REMARK   27  A    between atoms: _42  and  _44
REMARK                            x       y       z     vdW  Elec       q    Type
REMARK                         _______ _______ _______ _____ _____    ______ ____
ROOT
ATOM      1  C   UNL     1      -4.252  13.429  23.078  0.00  0.00    +0.401 C 
ATOM      2  O   UNL     1      -5.232  14.137  22.831  0.00  0.00    -0.226 OA
ATOM      3  N   UNL     1      -4.059  12.802  24.238  0.00  0.00    -0.279 N 
ATOM      4  H   UNL     1      -3.228  12.236  24.342  0.00  0.00    +0.152 HD
ENDROOT
BRANCH   1   5
ATOM      5  O   UNL     1      -3.252  13.253  22.071  0.00  0.00    -0.444 OA
BRANCH   5   6
ATOM      6  C   UNL     1      -2.835  11.886  22.046  0.00  0.00    +0.292 C 
BRANCH   6   8
ATOM      7  N   UNL     1      -4.170   9.851  21.595  0.00  0.00    -0.131 NA
ATOM      8  C   UNL     1      -3.740  11.089  21.198  0.00  0.00    +0.120 A 
ATOM      9  C   UNL     1      -4.283  11.381  19.966  0.00  0.00    +0.137 A 
ATOM     10  N   UNL     1      -5.030  10.281  19.671  0.00  0.00    -0.251 N 
ATOM     11  N   UNL     1      -4.961   9.363  20.648  0.00  0.00    -0.065 NA
BRANCH  10  12
ATOM     12  C   UNL     1      -5.794  10.021  18.471  0.00  0.00    +0.145 C 
BRANCH  12  13
ATOM     13  C   UNL     1      -4.885   9.913  17.251  0.00  0.00    +0.023 C 
BRANCH  13  14
ATOM     14  C   UNL     1      -5.084  11.079  16.284  0.00  0.00    +0.002 C 
BRANCH  14  15
ATOM     15  C   UNL     1      -3.846  11.974  16.276  0.00  0.00    +0.000 C 
BRANCH  15  16
ATOM     16  C   UNL     1      -3.940  13.062  15.210  0.00  0.00    +0.000 C 
BRANCH  16  17
ATOM     17  C   UNL     1      -4.390  12.474  13.872  0.00  0.00    +0.000 C 
BRANCH  17  18
ATOM     18  C   UNL     1      -3.262  12.531  12.845  0.00  0.00    +0.000 C 
BRANCH  18  19
ATOM     19  C   UNL     1      -3.053  11.181  12.161  0.00  0.00    +0.001 C 
BRANCH  19  20
ATOM     20  C   UNL     1      -2.909  10.072  13.202  0.00  0.00    +0.011 C 
BRANCH  20  21
ATOM     21  C   UNL     1      -2.971   8.684  12.569  0.00  0.00    +0.120 C 
BRANCH  21  22
ATOM     22  C   UNL     1      -1.869   7.789  13.088  0.00  0.00    +0.305 C 
ATOM     23  O   UNL     1      -1.125   7.109  12.398  0.00  0.00    -0.251 OA
BRANCH  22  24
ATOM     24  O   UNL     1      -1.779   7.811  14.437  0.00  0.00    -0.481 OA
ATOM     25  H   UNL     1      -2.177   8.604  14.844  0.00  0.00    +0.295 HD
ENDBRANCH  22  24
ENDBRANCH  21  22
ENDBRANCH  20  21
ENDBRANCH  19  20
ENDBRANCH  18  19
ENDBRANCH  17  18
ENDBRANCH  16  17
ENDBRANCH  15  16
ENDBRANCH  14  15
ENDBRANCH  13  14
ENDBRANCH  12  13
ENDBRANCH  10  12
ENDBRANCH   6   8
ENDBRANCH   5   6
ENDBRANCH   1   5
BRANCH   3  26
ATOM     26  C   UNL     1      -4.985  12.887  25.374  0.00  0.00    +0.141 C 
BRANCH  26  27
ATOM     27  C   UNL     1      -6.002  11.751  25.366  0.00  0.00    +0.163 C 
BRANCH  27  28
ATOM     28  O   UNL     1      -5.635  10.770  24.382  0.00  0.00    -0.388 OA
ATOM     29  H   UNL     1      -4.753  10.441  24.571  0.00  0.00    +0.210 HD
ENDBRANCH  27  28
BRANCH  27  30
ATOM     30  C   UNL     1      -6.081  11.122  26.767  0.00  0.00    +0.175 C 
BRANCH  30  31
ATOM     31  C   UNL     1      -4.723  10.578  27.234  0.00  0.00    +0.176 C 
ATOM     32  O   UNL     1      -4.370   9.459  26.375  0.00  0.00    -0.332 OA
ATOM     33  C   UNL     1      -3.045   8.876  26.606  0.00  0.00    +0.277 C 
ATOM     34  C   UNL     1      -2.886   8.466  28.091  0.00  0.00    +0.110 C 
ATOM     35  C   UNL     1      -3.281   9.613  29.044  0.00  0.00    +0.143 C 
ATOM     36  C   UNL     1      -4.675  10.147  28.712  0.00  0.00    +0.133 C 
BRANCH  36  37
ATOM     37  N   UNL     1      -5.004  11.296  29.570  0.00  0.00    -0.308 N 
ATOM     38  H   UNL     1      -4.422  12.119  29.499  0.00  0.00    +0.149 HD
ATOM     39  C   UNL     1      -6.022  11.323  30.435  0.00  0.00    +0.210 C 
ATOM     40  C   UNL     1      -6.874  10.044  30.537  0.00  0.00    +0.109 C 
ATOM     41  O   UNL     1      -6.283  12.305  31.130  0.00  0.00    -0.276 OA
ENDBRANCH  36  37
BRANCH  33  42
ATOM     42  C   UNL     1      -1.933   9.875  26.226  0.00  0.00    +0.414 C 
ATOM     43  O   UNL     1      -2.085  10.640  25.274  0.00  0.00    -0.240 OA
ATOM     44  O   UNL     1      -0.884   9.917  26.870  0.00  0.00    -0.240 OA
ENDBRANCH  33  42
BRANCH  35  45
ATOM     45  O   UNL     1      -3.266   9.146  30.393  0.00  0.00    -0.390 OA
ATOM     46  H   UNL     1      -3.049   9.872  30.982  0.00  0.00    +0.210 HD
ENDBRANCH  35  45
BRANCH  33  47
ATOM     47  O   UNL     1      -2.931   7.683  25.788  0.00  0.00    -0.343 OA
ATOM     48  C   UNL     1      -4.055   7.436  24.906  0.00  0.00    +0.198 C 
ENDBRANCH  33  47
ENDBRANCH  30  31
BRANCH  30  49
ATOM     49  O   UNL     1      -7.069  10.072  26.785  0.00  0.00    -0.387 OA
ATOM     50  H   UNL     1      -7.170   9.741  27.681  0.00  0.00    +0.210 HD
ENDBRANCH  30  49
ENDBRANCH  27  30
ENDBRANCH  26  27
ENDBRANCH   3  26
TORSDOF 25
