REMARK VINA RESULT:    -4.999      6.380      9.691
REMARK INTER + INTRA:         -11.641
REMARK INTER:                  -8.652
REMARK INTRA:                  -2.989
REMARK UNBOUND:                -2.989
REMARK  Name = lig_assembled_51.pdb
REMARK  16 active torsions:
REMARK  status: ('A' for Active; 'I' for Inactive)
REMARK    1  A    between atoms: _2  and  _9
REMARK    2  A    between atoms: _4  and  _22
REMARK    3  A    between atoms: _6  and  _7
REMARK    4  A    between atoms: _6  and  _22
REMARK    5  A    between atoms: _18  and  _38
REMARK    6  A    between atoms: _20  and  _26
REMARK    7  A    between atoms: _21  and  _25
REMARK    8  A    between atoms: _25  and  _26
REMARK    9  A    between atoms: _28  and  _29
REMARK   10  A    between atoms: _30  and  _31
REMARK   11  A    between atoms: _32  and  _34
REMARK   12  A    between atoms: _34  and  _35
REMARK   13  A    between atoms: _34  and  _36
REMARK   14  A    between atoms: _36  and  _37
REMARK   15  A    between atoms: _36  and  _38
REMARK   16  A    between atoms: _39  and  _41
REMARK                            x       y       z     vdW  Elec       q    Type
REMARK                         _______ _______ _______ _____ _____    ______ ____
ROOT
ATOM      1  C   UNL     1      -4.956   6.736  16.155  0.00  0.00    +0.163 C 
ENDROOT
BRANCH   1   2
ATOM      2  O   UNL     1      -4.487   5.656  15.332  0.00  0.00    -0.388 OA
ATOM      3  H   UNL     1      -5.042   4.885  15.468  0.00  0.00    +0.210 HD
ENDBRANCH   1   2
BRANCH   1   4
ATOM      4  C   UNL     1      -6.215   6.313  16.904  0.00  0.00    +0.141 C 
BRANCH   4   7
ATOM      5  C   UNL     1      -7.567   7.785  18.356  0.00  0.00    +0.401 C 
ATOM      6  O   UNL     1      -8.542   7.793  17.601  0.00  0.00    -0.226 OA
ATOM      7  N   UNL     1      -6.435   7.125  18.107  0.00  0.00    -0.279 N 
ATOM      8  H   UNL     1      -5.688   7.188  18.783  0.00  0.00    +0.152 HD
BRANCH   5   9
ATOM      9  O   UNL     1      -7.630   8.526  19.578  0.00  0.00    -0.444 OA
BRANCH   9  10
ATOM     10  C   UNL     1      -7.197   7.698  20.661  0.00  0.00    +0.292 C 
BRANCH  10  12
ATOM     11  N   UNL     1      -4.986   7.876  21.758  0.00  0.00    -0.131 NA
ATOM     12  C   UNL     1      -6.215   8.414  21.495  0.00  0.00    +0.120 A 
ATOM     13  C   UNL     1      -6.311   9.638  22.117  0.00  0.00    +0.137 A 
ATOM     14  N   UNL     1      -5.109   9.790  22.752  0.00  0.00    -0.245 N 
ATOM     15  N   UNL     1      -4.318   8.725  22.527  0.00  0.00    -0.065 NA
BRANCH  14  16
ATOM     16  C   UNL     1      -4.670  10.914  23.582  0.00  0.00    +0.066 C 
ATOM     17  C   UNL     1      -3.199  11.283  23.246  0.00  0.00    +0.034 C 
ATOM     18  C   UNL     1      -2.733  12.492  24.075  0.00  0.00    -0.008 C 
ATOM     19  C   UNL     1      -3.645  13.694  23.774  0.00  0.00    +0.007 C 
ATOM     20  C   UNL     1      -5.098  13.360  24.145  0.00  0.00    -0.008 C 
ATOM     21  C   UNL     1      -5.175  13.011  25.639  0.00  0.00    +0.007 C 
ATOM     22  C   UNL     1      -4.273  11.804  25.942  0.00  0.00    -0.008 C 
ATOM     23  C   UNL     1      -2.823  12.148  25.569  0.00  0.00    +0.007 C 
ATOM     24  C   UNL     1      -5.569  12.153  23.316  0.00  0.00    +0.034 C 
ATOM     25  C   UNL     1      -4.740  10.599  25.107  0.00  0.00    +0.034 C 
ENDBRANCH  14  16
ENDBRANCH  10  12
ENDBRANCH   9  10
ENDBRANCH   5   9
ENDBRANCH   4   7
ENDBRANCH   1   4
BRANCH   1  26
ATOM     26  C   UNL     1      -5.258   7.983  15.306  0.00  0.00    +0.175 C 
BRANCH  26  27
ATOM     27  C   UNL     1      -4.681   9.262  15.931  0.00  0.00    +0.176 C 
ATOM     28  O   UNL     1      -5.791  10.048  16.446  0.00  0.00    -0.332 OA
ATOM     29  C   UNL     1      -5.421  11.263  17.177  0.00  0.00    +0.277 C 
ATOM     30  C   UNL     1      -4.504  12.159  16.309  0.00  0.00    +0.110 C 
ATOM     31  C   UNL     1      -3.326  11.360  15.713  0.00  0.00    +0.143 C 
ATOM     32  C   UNL     1      -3.824  10.115  14.977  0.00  0.00    +0.133 C 
BRANCH  32  33
ATOM     33  N   UNL     1      -2.689   9.317  14.489  0.00  0.00    -0.308 N 
ATOM     34  H   UNL     1      -2.022   8.979  15.169  0.00  0.00    +0.149 HD
ATOM     35  C   UNL     1      -2.482   9.009  13.205  0.00  0.00    +0.210 C 
ATOM     36  C   UNL     1      -3.502   9.560  12.191  0.00  0.00    +0.109 C 
ATOM     37  O   UNL     1      -1.530   8.326  12.827  0.00  0.00    -0.276 OA
ENDBRANCH  32  33
BRANCH  29  38
ATOM     38  C   UNL     1      -4.700  10.911  18.495  0.00  0.00    +0.414 C 
ATOM     39  O   UNL     1      -4.730   9.760  18.930  0.00  0.00    -0.240 OA
ATOM     40  O   UNL     1      -4.088  11.776  19.123  0.00  0.00    -0.240 OA
ENDBRANCH  29  38
BRANCH  31  41
ATOM     41  O   UNL     1      -2.596  12.184  14.803  0.00  0.00    -0.390 OA
ATOM     42  H   UNL     1      -3.019  12.162  13.941  0.00  0.00    +0.210 HD
ENDBRANCH  31  41
BRANCH  29  43
ATOM     43  O   UNL     1      -6.637  11.999  17.468  0.00  0.00    -0.343 OA
ATOM     44  C   UNL     1      -7.862  11.346  17.052  0.00  0.00    +0.198 C 
ENDBRANCH  29  43
ENDBRANCH  26  27
BRANCH  26  45
ATOM     45  O   UNL     1      -6.680   8.122  15.115  0.00  0.00    -0.387 OA
ATOM     46  H   UNL     1      -7.070   8.523  15.895  0.00  0.00    +0.210 HD
ENDBRANCH  26  45
ENDBRANCH   1  26
TORSDOF 14
