REMARK VINA RESULT:    -4.524      3.177      8.191
REMARK INTER + INTRA:         -10.998
REMARK INTER:                  -7.433
REMARK INTRA:                  -3.565
REMARK UNBOUND:                -2.903
REMARK  Name = lig_assembled_69.pdb
REMARK  18 active torsions:
REMARK  status: ('A' for Active; 'I' for Inactive)
REMARK    1  A    between atoms: _2  and  _9
REMARK    2  A    between atoms: _4  and  _21
REMARK    3  A    between atoms: _6  and  _7
REMARK    4  A    between atoms: _6  and  _21
REMARK    5  A    between atoms: _11  and  _16
REMARK    6  A    between atoms: _14  and  _15
REMARK    7  A    between atoms: _17  and  _37
REMARK    8  A    between atoms: _19  and  _25
REMARK    9  A    between atoms: _20  and  _24
REMARK   10  A    between atoms: _24  and  _25
REMARK   11  A    between atoms: _27  and  _28
REMARK   12  A    between atoms: _29  and  _30
REMARK   13  A    between atoms: _31  and  _33
REMARK   14  A    between atoms: _33  and  _34
REMARK   15  A    between atoms: _33  and  _35
REMARK   16  A    between atoms: _35  and  _36
REMARK   17  A    between atoms: _35  and  _37
REMARK   18  A    between atoms: _38  and  _40
REMARK                            x       y       z     vdW  Elec       q    Type
REMARK                         _______ _______ _______ _____ _____    ______ ____
ROOT
ATOM      1  C   UNL     1      -3.498  12.071  26.409  0.00  0.00    +0.163 C 
ENDROOT
BRANCH   1   2
ATOM      2  O   UNL     1      -3.041  11.456  27.625  0.00  0.00    -0.388 OA
ATOM      3  H   UNL     1      -2.419  12.041  28.065  0.00  0.00    +0.210 HD
ENDBRANCH   1   2
BRANCH   1   4
ATOM      4  C   UNL     1      -2.963  11.321  25.178  0.00  0.00    +0.175 C 
BRANCH   4   5
ATOM      5  C   UNL     1      -4.024  10.402  24.554  0.00  0.00    +0.176 C 
ATOM      6  O   UNL     1      -3.596   9.026  24.753  0.00  0.00    -0.332 OA
ATOM      7  C   UNL     1      -4.544   7.998  24.313  0.00  0.00    +0.277 C 
ATOM      8  C   UNL     1      -4.928   8.217  22.829  0.00  0.00    +0.110 C 
ATOM      9  C   UNL     1      -5.360   9.675  22.562  0.00  0.00    +0.143 C 
ATOM     10  C   UNL     1      -4.303  10.660  23.062  0.00  0.00    +0.133 C 
BRANCH  10  11
ATOM     11  N   UNL     1      -4.763  12.045  22.881  0.00  0.00    -0.308 N 
ATOM     12  H   UNL     1      -5.474  12.392  23.509  0.00  0.00    +0.149 HD
ATOM     13  C   UNL     1      -4.303  12.875  21.940  0.00  0.00    +0.210 C 
ATOM     14  C   UNL     1      -3.239  12.308  20.982  0.00  0.00    +0.109 C 
ATOM     15  O   UNL     1      -4.697  14.035  21.821  0.00  0.00    -0.276 OA
ENDBRANCH  10  11
BRANCH   7  16
ATOM     16  C   UNL     1      -5.817   8.018  25.184  0.00  0.00    +0.414 C 
ATOM     17  O   UNL     1      -5.731   8.144  26.405  0.00  0.00    -0.240 OA
ATOM     18  O   UNL     1      -6.929   7.909  24.666  0.00  0.00    -0.240 OA
ENDBRANCH   7  16
BRANCH   7  19
ATOM     19  O   UNL     1      -3.892   6.707  24.430  0.00  0.00    -0.343 OA
ATOM     20  C   UNL     1      -4.779   5.563  24.343  0.00  0.00    +0.198 C 
ENDBRANCH   7  19
BRANCH   9  21
ATOM     21  O   UNL     1      -5.558   9.869  21.161  0.00  0.00    -0.390 OA
ATOM     22  H   UNL     1      -5.668   9.017  20.731  0.00  0.00    +0.210 HD
ENDBRANCH   9  21
ENDBRANCH   4   5
BRANCH   4  23
ATOM     23  O   UNL     1      -1.791  10.559  25.532  0.00  0.00    -0.387 OA
ATOM     24  H   UNL     1      -1.889   9.657  25.217  0.00  0.00    +0.210 HD
ENDBRANCH   4  23
ENDBRANCH   1   4
BRANCH   1  25
ATOM     25  C   UNL     1      -5.023  12.086  26.374  0.00  0.00    +0.141 C 
BRANCH  25  28
ATOM     26  C   UNL     1      -6.723  11.546  28.084  0.00  0.00    +0.401 C 
ATOM     27  O   UNL     1      -7.399  10.846  27.326  0.00  0.00    -0.226 OA
ATOM     28  N   UNL     1      -5.601  12.169  27.721  0.00  0.00    -0.279 N 
ATOM     29  H   UNL     1      -5.122  12.729  28.411  0.00  0.00    +0.152 HD
BRANCH  26  30
ATOM     30  O   UNL     1      -7.152  11.719  29.437  0.00  0.00    -0.444 OA
BRANCH  30  31
ATOM     31  C   UNL     1      -7.016  10.483  30.143  0.00  0.00    +0.292 C 
BRANCH  31  33
ATOM     32  N   UNL     1      -4.607  10.994  30.350  0.00  0.00    -0.131 NA
ATOM     33  C   UNL     1      -5.602  10.068  30.186  0.00  0.00    +0.120 A 
ATOM     34  C   UNL     1      -5.039   8.816  30.075  0.00  0.00    +0.137 A 
ATOM     35  N   UNL     1      -3.699   9.050  30.165  0.00  0.00    -0.248 N 
ATOM     36  N   UNL     1      -3.445  10.359  30.330  0.00  0.00    -0.065 NA
BRANCH  35  37
ATOM     37  C   UNL     1      -2.607   8.084  30.052  0.00  0.00    +0.114 C 
ATOM     38  C   UNL     1      -1.884   8.208  28.705  0.00  0.00    +0.062 C 
ATOM     39  C   UNL     1      -2.507   7.449  27.531  0.00  0.00    +0.139 C 
ATOM     40  C   UNL     1      -2.403   5.951  27.572  0.00  0.00    +0.002 C 
ATOM     41  C   UNL     1      -2.201   5.152  28.632  0.00  0.00    +0.002 C 
ATOM     42  C   UNL     1      -2.171   5.538  30.079  0.00  0.00    +0.139 C 
ATOM     43  C   UNL     1      -3.104   6.686  30.446  0.00  0.00    +0.062 C 
BRANCH  39  44
ATOM     44  O   UNL     1      -1.800   7.850  26.351  0.00  0.00    -0.388 OA
ATOM     45  H   UNL     1      -2.448   7.904  25.628  0.00  0.00    +0.210 HD
ENDBRANCH  39  44
BRANCH  42  46
ATOM     46  O   UNL     1      -0.838   5.840  30.458  0.00  0.00    -0.388 OA
ATOM     47  H   UNL     1      -0.253   5.235  29.969  0.00  0.00    +0.210 HD
ENDBRANCH  42  46
ENDBRANCH  35  37
ENDBRANCH  31  33
ENDBRANCH  30  31
ENDBRANCH  26  30
ENDBRANCH  25  28
ENDBRANCH   1  25
TORSDOF 16
