REMARK VINA RESULT:    -4.331      2.375      4.882
REMARK INTER + INTRA:         -13.901
REMARK INTER:                  -8.569
REMARK INTRA:                  -5.332
REMARK UNBOUND:                -3.746
REMARK  Name = lig_assembled_30.pdb
REMARK  27 active torsions:
REMARK  status: ('A' for Active; 'I' for Inactive)
REMARK    1  A    between atoms: _2  and  _9
REMARK    2  A    between atoms: _4  and  _25
REMARK    3  A    between atoms: _5  and  _18
REMARK    4  A    between atoms: _5  and  _19
REMARK    5  A    between atoms: _6  and  _7
REMARK    6  A    between atoms: _6  and  _25
REMARK    7  A    between atoms: _9  and  _10
REMARK    8  A    between atoms: _10  and  _11
REMARK    9  A    between atoms: _11  and  _12
REMARK   10  A    between atoms: _12  and  _13
REMARK   11  A    between atoms: _13  and  _14
REMARK   12  A    between atoms: _14  and  _15
REMARK   13  A    between atoms: _15  and  _16
REMARK   14  A    between atoms: _16  and  _17
REMARK   15  A    between atoms: _17  and  _18
REMARK   16  A    between atoms: _21  and  _41
REMARK   17  A    between atoms: _23  and  _29
REMARK   18  A    between atoms: _24  and  _28
REMARK   19  A    between atoms: _28  and  _29
REMARK   20  A    between atoms: _31  and  _32
REMARK   21  A    between atoms: _33  and  _34
REMARK   22  A    between atoms: _35  and  _37
REMARK   23  A    between atoms: _37  and  _38
REMARK   24  A    between atoms: _37  and  _39
REMARK   25  A    between atoms: _39  and  _40
REMARK   26  A    between atoms: _39  and  _41
REMARK   27  A    between atoms: _42  and  _44
REMARK                            x       y       z     vdW  Elec       q    Type
REMARK                         _______ _______ _______ _____ _____    ______ ____
ROOT
ATOM      1  C   UNL     1      -2.985   9.568  28.357  0.00  0.00    +0.401 C 
ATOM      2  O   UNL     1      -1.878   9.449  27.826  0.00  0.00    -0.226 OA
ATOM      3  N   UNL     1      -3.755  10.651  28.242  0.00  0.00    -0.279 N 
ATOM      4  H   UNL     1      -4.652  10.650  28.707  0.00  0.00    +0.152 HD
ENDROOT
BRANCH   1   5
ATOM      5  O   UNL     1      -3.497   8.489  29.143  0.00  0.00    -0.444 OA
BRANCH   5   6
ATOM      6  C   UNL     1      -2.849   8.477  30.418  0.00  0.00    +0.292 C 
BRANCH   6   8
ATOM      7  N   UNL     1      -4.669   9.809  31.440  0.00  0.00    -0.131 NA
ATOM      8  C   UNL     1      -3.329   9.599  31.246  0.00  0.00    +0.120 A 
ATOM      9  C   UNL     1      -2.618  10.566  31.921  0.00  0.00    +0.137 A 
ATOM     10  N   UNL     1      -3.583  11.332  32.502  0.00  0.00    -0.251 N 
ATOM     11  N   UNL     1      -4.813  10.878  32.212  0.00  0.00    -0.065 NA
BRANCH  10  12
ATOM     12  C   UNL     1      -3.410  12.523  33.304  0.00  0.00    +0.145 C 
BRANCH  12  13
ATOM     13  C   UNL     1      -2.405  13.477  32.666  0.00  0.00    +0.023 C 
BRANCH  13  14
ATOM     14  C   UNL     1      -3.036  14.313  31.555  0.00  0.00    +0.002 C 
BRANCH  14  15
ATOM     15  C   UNL     1      -4.046  15.297  32.144  0.00  0.00    +0.000 C 
BRANCH  15  16
ATOM     16  C   UNL     1      -3.905  16.688  31.534  0.00  0.00    +0.000 C 
BRANCH  16  17
ATOM     17  C   UNL     1      -4.971  16.921  30.462  0.00  0.00    +0.000 C 
BRANCH  17  18
ATOM     18  C   UNL     1      -6.266  16.195  30.814  0.00  0.00    +0.000 C 
BRANCH  18  19
ATOM     19  C   UNL     1      -6.898  15.542  29.585  0.00  0.00    +0.001 C 
BRANCH  19  20
ATOM     20  C   UNL     1      -5.997  14.431  29.048  0.00  0.00    +0.011 C 
BRANCH  20  21
ATOM     21  C   UNL     1      -6.171  13.130  29.826  0.00  0.00    +0.120 C 
BRANCH  21  22
ATOM     22  C   UNL     1      -6.680  12.018  28.938  0.00  0.00    +0.305 C 
ATOM     23  O   UNL     1      -7.266  12.170  27.877  0.00  0.00    -0.251 OA
BRANCH  22  24
ATOM     24  O   UNL     1      -6.417  10.792  29.445  0.00  0.00    -0.481 OA
ATOM     25  H   UNL     1      -5.801  10.805  30.202  0.00  0.00    +0.295 HD
ENDBRANCH  22  24
ENDBRANCH  21  22
ENDBRANCH  20  21
ENDBRANCH  19  20
ENDBRANCH  18  19
ENDBRANCH  17  18
ENDBRANCH  16  17
ENDBRANCH  15  16
ENDBRANCH  14  15
ENDBRANCH  13  14
ENDBRANCH  12  13
ENDBRANCH  10  12
ENDBRANCH   6   8
ENDBRANCH   5   6
ENDBRANCH   1   5
BRANCH   3  26
ATOM     26  C   UNL     1      -3.371  11.845  27.480  0.00  0.00    +0.141 C 
BRANCH  26  27
ATOM     27  C   UNL     1      -4.096  11.921  26.139  0.00  0.00    +0.163 C 
BRANCH  27  28
ATOM     28  O   UNL     1      -4.878  13.124  26.071  0.00  0.00    -0.388 OA
ATOM     29  H   UNL     1      -5.551  13.109  26.755  0.00  0.00    +0.210 HD
ENDBRANCH  27  28
BRANCH  27  30
ATOM     30  C   UNL     1      -3.068  11.866  24.996  0.00  0.00    +0.175 C 
BRANCH  30  31
ATOM     31  C   UNL     1      -3.722  11.533  23.647  0.00  0.00    +0.176 C 
ATOM     32  O   UNL     1      -4.435  12.716  23.191  0.00  0.00    -0.332 OA
ATOM     33  C   UNL     1      -5.039  12.618  21.859  0.00  0.00    +0.277 C 
ATOM     34  C   UNL     1      -5.967  11.382  21.775  0.00  0.00    +0.110 C 
ATOM     35  C   UNL     1      -5.263  10.105  22.279  0.00  0.00    +0.143 C 
ATOM     36  C   UNL     1      -4.669  10.319  23.672  0.00  0.00    +0.133 C 
BRANCH  36  37
ATOM     37  N   UNL     1      -3.926   9.125  24.105  0.00  0.00    -0.308 N 
ATOM     38  H   UNL     1      -3.061   8.909  23.628  0.00  0.00    +0.149 HD
ATOM     39  C   UNL     1      -4.319   8.308  25.086  0.00  0.00    +0.210 C 
ATOM     40  C   UNL     1      -5.654   8.650  25.775  0.00  0.00    +0.109 C 
ATOM     41  O   UNL     1      -3.669   7.323  25.437  0.00  0.00    -0.276 OA
ENDBRANCH  36  37
BRANCH  33  42
ATOM     42  C   UNL     1      -3.949  12.519  20.771  0.00  0.00    +0.414 C 
ATOM     43  O   UNL     1      -4.095  11.758  19.815  0.00  0.00    -0.240 OA
ATOM     44  O   UNL     1      -2.926  13.200  20.848  0.00  0.00    -0.240 OA
ENDBRANCH  33  42
BRANCH  35  45
ATOM     45  O   UNL     1      -6.197   9.026  22.327  0.00  0.00    -0.390 OA
ATOM     46  H   UNL     1      -5.802   8.280  22.785  0.00  0.00    +0.210 HD
ENDBRANCH  35  45
BRANCH  33  47
ATOM     47  O   UNL     1      -5.840  13.808  21.641  0.00  0.00    -0.343 OA
ATOM     48  C   UNL     1      -5.601  14.887  22.579  0.00  0.00    +0.198 C 
ENDBRANCH  33  47
ENDBRANCH  30  31
BRANCH  30  49
ATOM     49  O   UNL     1      -2.038  10.905  25.300  0.00  0.00    -0.387 OA
ATOM     50  H   UNL     1      -1.210  11.363  25.465  0.00  0.00    +0.210 HD
ENDBRANCH  30  49
ENDBRANCH  27  30
ENDBRANCH  26  27
ENDBRANCH   3  26
TORSDOF 25
