REMARK VINA RESULT:    -5.170      3.630      8.113
REMARK INTER + INTRA:         -12.029
REMARK INTER:                  -9.188
REMARK INTRA:                  -2.842
REMARK UNBOUND:                -2.779
REMARK  Name = lig_assembled_39.pdb
REMARK  17 active torsions:
REMARK  status: ('A' for Active; 'I' for Inactive)
REMARK    1  A    between atoms: _2  and  _9
REMARK    2  A    between atoms: _4  and  _19
REMARK    3  A    between atoms: _6  and  _7
REMARK    4  A    between atoms: _6  and  _19
REMARK    5  A    between atoms: _9  and  _10
REMARK    6  A    between atoms: _15  and  _35
REMARK    7  A    between atoms: _17  and  _23
REMARK    8  A    between atoms: _18  and  _22
REMARK    9  A    between atoms: _22  and  _23
REMARK   10  A    between atoms: _25  and  _26
REMARK   11  A    between atoms: _27  and  _28
REMARK   12  A    between atoms: _29  and  _31
REMARK   13  A    between atoms: _31  and  _32
REMARK   14  A    between atoms: _31  and  _33
REMARK   15  A    between atoms: _33  and  _34
REMARK   16  A    between atoms: _33  and  _35
REMARK   17  A    between atoms: _36  and  _38
REMARK                            x       y       z     vdW  Elec       q    Type
REMARK                         _______ _______ _______ _____ _____    ______ ____
ROOT
ATOM      1  C   UNL     1      -2.368   9.793  27.080  0.00  0.00    +0.163 C 
ENDROOT
BRANCH   1   2
ATOM      2  O   UNL     1      -1.183  10.096  26.326  0.00  0.00    -0.388 OA
ATOM      3  H   UNL     1      -1.181  11.028  26.093  0.00  0.00    +0.210 HD
ENDBRANCH   1   2
BRANCH   1   4
ATOM      4  C   UNL     1      -1.988   9.236  28.448  0.00  0.00    +0.141 C 
BRANCH   4   7
ATOM      5  C   UNL     1      -3.585   9.228  30.333  0.00  0.00    +0.401 C 
ATOM      6  O   UNL     1      -3.828   8.022  30.245  0.00  0.00    -0.226 OA
ATOM      7  N   UNL     1      -2.743   9.879  29.530  0.00  0.00    -0.279 N 
ATOM      8  H   UNL     1      -2.617  10.871  29.675  0.00  0.00    +0.152 HD
BRANCH   5   9
ATOM      9  O   UNL     1      -4.238   9.996  31.347  0.00  0.00    -0.444 OA
BRANCH   9  10
ATOM     10  C   UNL     1      -3.371  10.133  32.476  0.00  0.00    +0.292 C 
BRANCH  10  12
ATOM     11  N   UNL     1      -1.914  12.085  32.033  0.00  0.00    -0.131 NA
ATOM     12  C   UNL     1      -3.001  11.547  32.672  0.00  0.00    +0.120 A 
ATOM     13  C   UNL     1      -3.608  12.523  33.429  0.00  0.00    +0.137 A 
ATOM     14  N   UNL     1      -2.893  13.649  33.143  0.00  0.00    -0.247 N 
ATOM     15  N   UNL     1      -1.839  13.369  32.353  0.00  0.00    -0.065 NA
BRANCH  14  16
ATOM     16  C   UNL     1      -3.192  15.021  33.527  0.00  0.00    +0.181 C 
BRANCH  16  17
ATOM     17  C   UNL     1      -3.872  15.815  32.426  0.00  0.00    -0.012 A 
ATOM     18  C   UNL     1      -4.536  15.166  31.366  0.00  0.00    +0.006 A 
ATOM     19  C   UNL     1      -5.162  15.885  30.344  0.00  0.00    +0.000 A 
ATOM     20  C   UNL     1      -5.119  17.273  30.345  0.00  0.00    +0.001 A 
ATOM     21  C   UNL     1      -4.434  17.941  31.357  0.00  0.00    +0.015 A 
ATOM     22  C   UNL     1      -3.805  17.221  32.383  0.00  0.00    +0.023 A 
ATOM     23 BR   UNL     1      -2.852  18.239  33.676  0.00  0.00    -0.050 Br
ENDBRANCH  16  17
ENDBRANCH  14  16
ENDBRANCH  10  12
ENDBRANCH   9  10
ENDBRANCH   5   9
ENDBRANCH   4   7
ENDBRANCH   1   4
BRANCH   1  24
ATOM     24  C   UNL     1      -3.248   8.773  26.336  0.00  0.00    +0.175 C 
BRANCH  24  25
ATOM     25  C   UNL     1      -4.104   9.434  25.246  0.00  0.00    +0.176 C 
ATOM     26  O   UNL     1      -3.232   9.757  24.128  0.00  0.00    -0.332 OA
ATOM     27  C   UNL     1      -3.899  10.304  22.942  0.00  0.00    +0.277 C 
ATOM     28  C   UNL     1      -4.745  11.544  23.321  0.00  0.00    +0.110 C 
ATOM     29  C   UNL     1      -5.666  11.258  24.527  0.00  0.00    +0.143 C 
ATOM     30  C   UNL     1      -4.870  10.690  25.702  0.00  0.00    +0.133 C 
BRANCH  30  31
ATOM     31  N   UNL     1      -5.769  10.341  26.813  0.00  0.00    -0.308 N 
ATOM     32  H   UNL     1      -6.366   9.534  26.700  0.00  0.00    +0.149 HD
ATOM     33  C   UNL     1      -5.848  11.021  27.960  0.00  0.00    +0.210 C 
ATOM     34  C   UNL     1      -4.944  12.261  28.090  0.00  0.00    +0.109 C 
ATOM     35  O   UNL     1      -6.601  10.697  28.879  0.00  0.00    -0.276 OA
ENDBRANCH  30  31
BRANCH  27  36
ATOM     36  C   UNL     1      -4.805   9.242  22.285  0.00  0.00    +0.414 C 
ATOM     37  O   UNL     1      -5.834   9.580  21.701  0.00  0.00    -0.240 OA
ATOM     38  O   UNL     1      -4.507   8.048  22.339  0.00  0.00    -0.240 OA
ENDBRANCH  27  36
BRANCH  27  39
ATOM     39  O   UNL     1      -2.874  10.720  22.003  0.00  0.00    -0.343 OA
ATOM     40  C   UNL     1      -3.137  11.975  21.326  0.00  0.00    +0.198 C 
ENDBRANCH  27  39
BRANCH  29  41
ATOM     41  O   UNL     1      -6.312  12.464  24.935  0.00  0.00    -0.390 OA
ATOM     42  H   UNL     1      -6.634  12.934  24.162  0.00  0.00    +0.210 HD
ENDBRANCH  29  41
ENDBRANCH  24  25
BRANCH  24  43
ATOM     43  O   UNL     1      -4.090   8.069  27.271  0.00  0.00    -0.387 OA
ATOM     44  H   UNL     1      -4.480   8.695  27.885  0.00  0.00    +0.210 HD
ENDBRANCH  24  43
ENDBRANCH   1  24
TORSDOF 15
