REMARK VINA RESULT:    -4.827      4.022      6.460
REMARK INTER + INTRA:         -10.870
REMARK INTER:                  -8.891
REMARK INTRA:                  -1.979
REMARK UNBOUND:                -2.233
REMARK  Name = lig_assembled_61.pdb
REMARK  17 active torsions:
REMARK  status: ('A' for Active; 'I' for Inactive)
REMARK    1  A    between atoms: _2  and  _9
REMARK    2  A    between atoms: _4  and  _17
REMARK    3  A    between atoms: _6  and  _7
REMARK    4  A    between atoms: _6  and  _17
REMARK    5  A    between atoms: _9  and  _10
REMARK    6  A    between atoms: _13  and  _33
REMARK    7  A    between atoms: _15  and  _21
REMARK    8  A    between atoms: _16  and  _20
REMARK    9  A    between atoms: _20  and  _21
REMARK   10  A    between atoms: _23  and  _24
REMARK   11  A    between atoms: _25  and  _26
REMARK   12  A    between atoms: _27  and  _29
REMARK   13  A    between atoms: _29  and  _30
REMARK   14  A    between atoms: _29  and  _31
REMARK   15  A    between atoms: _31  and  _32
REMARK   16  A    between atoms: _31  and  _33
REMARK   17  A    between atoms: _34  and  _36
REMARK                            x       y       z     vdW  Elec       q    Type
REMARK                         _______ _______ _______ _____ _____    ______ ____
ROOT
ATOM      1  C   UNL     1      -4.680  12.004  25.866  0.00  0.00    +0.163 C 
ENDROOT
BRANCH   1   2
ATOM      2  O   UNL     1      -5.250  10.762  25.420  0.00  0.00    -0.388 OA
ATOM      3  H   UNL     1      -5.435  10.203  26.179  0.00  0.00    +0.210 HD
ENDBRANCH   1   2
BRANCH   1   4
ATOM      4  C   UNL     1      -3.215  12.085  25.450  0.00  0.00    +0.141 C 
BRANCH   4   7
ATOM      5  C   UNL     1      -3.016  11.149  23.171  0.00  0.00    +0.401 C 
ATOM      6  O   UNL     1      -3.078   9.976  23.546  0.00  0.00    -0.226 OA
ATOM      7  N   UNL     1      -3.066  12.198  23.994  0.00  0.00    -0.279 N 
ATOM      8  H   UNL     1      -2.997  13.123  23.592  0.00  0.00    +0.152 HD
BRANCH   5   9
ATOM      9  O   UNL     1      -2.877  11.426  21.775  0.00  0.00    -0.444 OA
BRANCH   9  10
ATOM     10  C   UNL     1      -4.147  11.803  21.235  0.00  0.00    +0.292 C 
BRANCH  10  12
ATOM     11  N   UNL     1      -4.879   9.525  20.600  0.00  0.00    -0.131 NA
ATOM     12  C   UNL     1      -4.594  10.815  20.235  0.00  0.00    +0.120 A 
ATOM     13  C   UNL     1      -4.800  10.957  18.880  0.00  0.00    +0.137 A 
ATOM     14  N   UNL     1      -5.152   9.705  18.470  0.00  0.00    -0.247 N 
ATOM     15  N   UNL     1      -5.239   8.857  19.512  0.00  0.00    -0.065 NA
BRANCH  14  16
ATOM     16  C   UNL     1      -5.454   9.251  17.124  0.00  0.00    +0.180 C 
BRANCH  16  17
ATOM     17  C   UNL     1      -4.225   8.767  16.408  0.00  0.00    -0.019 A 
ATOM     18  C   UNL     1      -3.367   9.598  15.610  0.00  0.00    +0.013 A 
ATOM     19  C   UNL     1      -2.330   8.897  15.032  0.00  0.00    +0.045 A 
ATOM     20  S   UNL     1      -2.366   7.242  15.449  0.00  0.00    -0.105 S 
ATOM     21  C   UNL     1      -3.774   7.457  16.393  0.00  0.00    +0.050 A 
ENDBRANCH  16  17
ENDBRANCH  14  16
ENDBRANCH  10  12
ENDBRANCH   9  10
ENDBRANCH   5   9
ENDBRANCH   4   7
ENDBRANCH   1   4
BRANCH   1  22
ATOM     22  C   UNL     1      -4.788  12.140  27.395  0.00  0.00    +0.175 C 
BRANCH  22  23
ATOM     23  C   UNL     1      -3.930  11.100  28.130  0.00  0.00    +0.176 C 
ATOM     24  O   UNL     1      -4.517   9.790  27.895  0.00  0.00    -0.332 OA
ATOM     25  C   UNL     1      -3.767   8.653  28.438  0.00  0.00    +0.277 C 
ATOM     26  C   UNL     1      -3.510   8.848  29.952  0.00  0.00    +0.110 C 
ATOM     27  C   UNL     1      -2.916  10.239  30.255  0.00  0.00    +0.143 C 
ATOM     28  C   UNL     1      -3.773  11.347  29.642  0.00  0.00    +0.133 C 
BRANCH  28  29
ATOM     29  N   UNL     1      -3.151  12.662  29.863  0.00  0.00    -0.308 N 
ATOM     30  H   UNL     1      -2.240  12.826  29.459  0.00  0.00    +0.149 HD
ATOM     31  C   UNL     1      -3.711  13.652  30.563  0.00  0.00    +0.210 C 
ATOM     32  C   UNL     1      -5.088  13.361  31.189  0.00  0.00    +0.109 C 
ATOM     33  O   UNL     1      -3.172  14.748  30.720  0.00  0.00    -0.276 OA
ENDBRANCH  28  29
BRANCH  25  34
ATOM     34  C   UNL     1      -2.420   8.486  27.704  0.00  0.00    +0.414 C 
ATOM     35  O   UNL     1      -1.441   8.038  28.299  0.00  0.00    -0.240 OA
ATOM     36  O   UNL     1      -2.313   8.799  26.517  0.00  0.00    -0.240 OA
ENDBRANCH  25  34
BRANCH  25  37
ATOM     37  O   UNL     1      -4.572   7.459  28.260  0.00  0.00    -0.343 OA
ATOM     38  C   UNL     1      -5.567   7.543  27.208  0.00  0.00    +0.198 C 
ENDBRANCH  25  37
BRANCH  27  39
ATOM     39  O   UNL     1      -2.837  10.432  31.668  0.00  0.00    -0.390 OA
ATOM     40  H   UNL     1      -2.123   9.899  32.025  0.00  0.00    +0.210 HD
ENDBRANCH  27  39
ENDBRANCH  22  23
BRANCH  22  41
ATOM     41  O   UNL     1      -6.165  12.030  27.808  0.00  0.00    -0.387 OA
ATOM     42  H   UNL     1      -6.284  11.223  28.313  0.00  0.00    +0.210 HD
ENDBRANCH  22  41
ENDBRANCH   1  22
TORSDOF 15
