REMARK VINA RESULT:    -5.173      2.622      4.787
REMARK INTER + INTRA:         -11.258
REMARK INTER:                  -8.671
REMARK INTRA:                  -2.587
REMARK UNBOUND:                -2.004
REMARK  Name = lig_assembled_6.pdb
REMARK  17 active torsions:
REMARK  status: ('A' for Active; 'I' for Inactive)
REMARK    1  A    between atoms: _2  and  _10
REMARK    2  A    between atoms: _3  and  _13
REMARK    3  A    between atoms: _5  and  _21
REMARK    4  A    between atoms: _7  and  _8
REMARK    5  A    between atoms: _7  and  _21
REMARK    6  A    between atoms: _17  and  _37
REMARK    7  A    between atoms: _19  and  _25
REMARK    8  A    between atoms: _20  and  _24
REMARK    9  A    between atoms: _24  and  _25
REMARK   10  A    between atoms: _27  and  _28
REMARK   11  A    between atoms: _29  and  _30
REMARK   12  A    between atoms: _31  and  _33
REMARK   13  A    between atoms: _33  and  _34
REMARK   14  A    between atoms: _33  and  _35
REMARK   15  A    between atoms: _35  and  _36
REMARK   16  A    between atoms: _35  and  _37
REMARK   17  A    between atoms: _38  and  _40
REMARK                            x       y       z     vdW  Elec       q    Type
REMARK                         _______ _______ _______ _____ _____    ______ ____
ROOT
ATOM      1  C   UNL     1      -6.681   9.721  23.892  0.00  0.00    +0.163 C 
ENDROOT
BRANCH   1   2
ATOM      2  O   UNL     1      -6.976  10.152  25.231  0.00  0.00    -0.388 OA
ATOM      3  H   UNL     1      -7.497   9.479  25.676  0.00  0.00    +0.210 HD
ENDBRANCH   1   2
BRANCH   1   4
ATOM      4  C   UNL     1      -7.860   8.939  23.324  0.00  0.00    +0.141 C 
BRANCH   4   7
ATOM      5  C   UNL     1      -8.124   8.794  20.871  0.00  0.00    +0.401 C 
ATOM      6  O   UNL     1      -7.598   7.682  20.786  0.00  0.00    -0.226 OA
ATOM      7  N   UNL     1      -8.282   9.458  22.017  0.00  0.00    -0.279 N 
ATOM      8  H   UNL     1      -8.717  10.370  21.984  0.00  0.00    +0.152 HD
BRANCH   5   9
ATOM      9  O   UNL     1      -8.597   9.432  19.682  0.00  0.00    -0.444 OA
BRANCH   9  10
ATOM     10  C   UNL     1      -8.099  10.771  19.627  0.00  0.00    +0.292 C 
BRANCH  10  12
ATOM     11  N   UNL     1      -6.786  12.179  18.071  0.00  0.00    -0.131 NA
ATOM     12  C   UNL     1      -7.215  10.943  18.460  0.00  0.00    +0.121 A 
ATOM     13  C   UNL     1      -6.682   9.997  17.614  0.00  0.00    +0.143 A 
ATOM     14  N   UNL     1      -5.900  10.707  16.733  0.00  0.00    -0.220 N 
ATOM     15  N   UNL     1      -5.994  12.029  17.017  0.00  0.00    -0.060 NA
BRANCH  14  16
ATOM     16  C   UNL     1      -5.063  10.218  15.694  0.00  0.00    +0.067 A 
ATOM     17  C   UNL     1      -3.679  10.096  15.889  0.00  0.00    +0.034 A 
ATOM     18  C   UNL     1      -2.857   9.672  14.838  0.00  0.00    +0.086 A 
ATOM     19  C   UNL     1      -3.420   9.367  13.593  0.00  0.00    +0.273 A 
ATOM     20  C   UNL     1      -4.803   9.460  13.397  0.00  0.00    +0.086 A 
ATOM     21  C   UNL     1      -5.622   9.884  14.450  0.00  0.00    +0.034 A 
BRANCH  19  22
ATOM     22  N   UNL     1      -2.548   8.965  12.482  0.00  0.00    +0.080 N 
ATOM     23  O   UNL     1      -1.625   8.176  12.733  0.00  0.00    +0.041 OA
ATOM     24  O   UNL     1      -2.781   9.442  11.364  0.00  0.00    -0.576 OA
ENDBRANCH  19  22
ENDBRANCH  14  16
ENDBRANCH  10  12
ENDBRANCH   9  10
ENDBRANCH   5   9
ENDBRANCH   4   7
ENDBRANCH   1   4
BRANCH   1  25
ATOM     25  C   UNL     1      -5.419   8.842  23.863  0.00  0.00    +0.175 C 
BRANCH  25  26
ATOM     26  C   UNL     1      -4.185   9.583  24.399  0.00  0.00    +0.176 C 
ATOM     27  O   UNL     1      -4.364   9.771  25.830  0.00  0.00    -0.332 OA
ATOM     28  C   UNL     1      -3.229  10.372  26.537  0.00  0.00    +0.277 C 
ATOM     29  C   UNL     1      -2.832  11.716  25.879  0.00  0.00    +0.110 C 
ATOM     30  C   UNL     1      -2.662  11.574  24.351  0.00  0.00    +0.143 C 
ATOM     31  C   UNL     1      -3.899  10.935  23.719  0.00  0.00    +0.133 C 
BRANCH  31  32
ATOM     32  N   UNL     1      -3.690  10.725  22.277  0.00  0.00    -0.308 N 
ATOM     33  H   UNL     1      -3.016  10.027  21.995  0.00  0.00    +0.149 HD
ATOM     34  C   UNL     1      -4.333  11.396  21.318  0.00  0.00    +0.210 C 
ATOM     35  C   UNL     1      -5.335  12.471  21.781  0.00  0.00    +0.109 C 
ATOM     36  O   UNL     1      -4.149  11.189  20.118  0.00  0.00    -0.276 OA
ENDBRANCH  31  32
BRANCH  28  37
ATOM     37  C   UNL     1      -2.016   9.419  26.535  0.00  0.00    +0.414 C 
ATOM     38  O   UNL     1      -0.874   9.869  26.626  0.00  0.00    -0.240 OA
ATOM     39  O   UNL     1      -2.178   8.202  26.442  0.00  0.00    -0.240 OA
ENDBRANCH  28  37
BRANCH  30  40
ATOM     40  O   UNL     1      -2.447  12.860  23.769  0.00  0.00    -0.390 OA
ATOM     41  H   UNL     1      -3.276  13.196  23.418  0.00  0.00    +0.210 HD
ENDBRANCH  30  40
BRANCH  28  42
ATOM     42  O   UNL     1      -3.640  10.636  27.903  0.00  0.00    -0.343 OA
ATOM     43  C   UNL     1      -4.286   9.524  28.574  0.00  0.00    +0.198 C 
ENDBRANCH  28  42
ENDBRANCH  25  26
BRANCH  25  44
ATOM     44  O   UNL     1      -5.172   8.373  22.522  0.00  0.00    -0.387 OA
ATOM     45  H   UNL     1      -5.250   9.105  21.907  0.00  0.00    +0.210 HD
ENDBRANCH  25  44
ENDBRANCH   1  25
TORSDOF 15
