REMARK VINA RESULT:    -5.199      3.641      6.106
REMARK INTER + INTRA:         -12.587
REMARK INTER:                  -9.216
REMARK INTRA:                  -3.372
REMARK UNBOUND:                -2.678
REMARK  Name = lig_assembled_26.pdb
REMARK  20 active torsions:
REMARK  status: ('A' for Active; 'I' for Inactive)
REMARK    1  A    between atoms: _2  and  _9
REMARK    2  A    between atoms: _4  and  _23
REMARK    3  A    between atoms: _6  and  _7
REMARK    4  A    between atoms: _6  and  _23
REMARK    5  A    between atoms: _9  and  _10
REMARK    6  A    between atoms: _9  and  _11
REMARK    7  A    between atoms: _11  and  _12
REMARK    8  A    between atoms: _12  and  _13
REMARK    9  A    between atoms: _19  and  _39
REMARK   10  A    between atoms: _21  and  _27
REMARK   11  A    between atoms: _22  and  _26
REMARK   12  A    between atoms: _26  and  _27
REMARK   13  A    between atoms: _29  and  _30
REMARK   14  A    between atoms: _31  and  _32
REMARK   15  A    between atoms: _33  and  _35
REMARK   16  A    between atoms: _35  and  _36
REMARK   17  A    between atoms: _35  and  _37
REMARK   18  A    between atoms: _37  and  _38
REMARK   19  A    between atoms: _37  and  _39
REMARK   20  A    between atoms: _40  and  _42
REMARK                            x       y       z     vdW  Elec       q    Type
REMARK                         _______ _______ _______ _____ _____    ______ ____
ROOT
ATOM      1  C   UNL     1      -5.537  12.284  27.385  0.00  0.00    +0.163 C 
ENDROOT
BRANCH   1   2
ATOM      2  O   UNL     1      -6.276  11.160  26.879  0.00  0.00    -0.388 OA
ATOM      3  H   UNL     1      -6.296  10.465  27.542  0.00  0.00    +0.210 HD
ENDBRANCH   1   2
BRANCH   1   4
ATOM      4  C   UNL     1      -5.421  12.221  28.918  0.00  0.00    +0.175 C 
BRANCH   4   5
ATOM      5  C   UNL     1      -4.314  11.260  29.375  0.00  0.00    +0.176 C 
ATOM      6  O   UNL     1      -4.897   9.933  29.499  0.00  0.00    -0.332 OA
ATOM      7  C   UNL     1      -3.957   8.856  29.827  0.00  0.00    +0.277 C 
ATOM      8  C   UNL     1      -3.166   9.202  31.112  0.00  0.00    +0.110 C 
ATOM      9  C   UNL     1      -2.554  10.617  31.041  0.00  0.00    +0.143 C 
ATOM     10  C   UNL     1      -3.618  11.658  30.690  0.00  0.00    +0.133 C 
BRANCH  10  11
ATOM     11  N   UNL     1      -3.007  12.988  30.540  0.00  0.00    -0.308 N 
ATOM     12  H   UNL     1      -2.333  13.117  29.798  0.00  0.00    +0.149 HD
ATOM     13  C   UNL     1      -3.285  14.037  31.319  0.00  0.00    +0.210 C 
ATOM     14  C   UNL     1      -4.297  13.801  32.456  0.00  0.00    +0.109 C 
ATOM     15  O   UNL     1      -2.769  15.143  31.160  0.00  0.00    -0.276 OA
ENDBRANCH  10  11
BRANCH   7  16
ATOM     16  C   UNL     1      -2.973   8.616  28.664  0.00  0.00    +0.414 C 
ATOM     17  O   UNL     1      -1.813   8.277  28.893  0.00  0.00    -0.240 OA
ATOM     18  O   UNL     1      -3.338   8.761  27.497  0.00  0.00    -0.240 OA
ENDBRANCH   7  16
BRANCH   7  19
ATOM     19  O   UNL     1      -4.726   7.651  30.074  0.00  0.00    -0.343 OA
ATOM     20  C   UNL     1      -6.059   7.646  29.503  0.00  0.00    +0.198 C 
ENDBRANCH   7  19
BRANCH   9  21
ATOM     21  O   UNL     1      -1.965  10.951  32.298  0.00  0.00    -0.390 OA
ATOM     22  H   UNL     1      -1.920  11.906  32.387  0.00  0.00    +0.210 HD
ENDBRANCH   9  21
ENDBRANCH   4   5
BRANCH   4  23
ATOM     23  O   UNL     1      -6.684  11.835  29.496  0.00  0.00    -0.387 OA
ATOM     24  H   UNL     1      -7.399  12.269  29.024  0.00  0.00    +0.210 HD
ENDBRANCH   4  23
ENDBRANCH   1   4
BRANCH   1  25
ATOM     25  C   UNL     1      -4.142  12.310  26.770  0.00  0.00    +0.141 C 
BRANCH  25  28
ATOM     26  C   UNL     1      -3.008  11.309  24.816  0.00  0.00    +0.401 C 
ATOM     27  O   UNL     1      -2.140  12.183  24.753  0.00  0.00    -0.226 OA
ATOM     28  N   UNL     1      -3.986  11.293  25.722  0.00  0.00    -0.279 N 
ATOM     29  H   UNL     1      -4.658  10.539  25.687  0.00  0.00    +0.152 HD
BRANCH  26  30
ATOM     30  O   UNL     1      -2.988  10.241  23.866  0.00  0.00    -0.444 OA
BRANCH  30  31
ATOM     31  C   UNL     1      -4.024   9.305  24.177  0.00  0.00    +0.292 C 
BRANCH  31  33
ATOM     32  N   UNL     1      -6.321  10.181  23.841  0.00  0.00    -0.131 NA
ATOM     33  C   UNL     1      -5.211   9.555  23.341  0.00  0.00    +0.120 A 
ATOM     34  C   UNL     1      -5.425   9.248  22.017  0.00  0.00    +0.137 A 
ATOM     35  N   UNL     1      -6.692   9.685  21.773  0.00  0.00    -0.248 N 
ATOM     36  N   UNL     1      -7.217  10.273  22.867  0.00  0.00    -0.065 NA
BRANCH  35  37
ATOM     37  C   UNL     1      -7.457   9.662  20.535  0.00  0.00    +0.113 C 
ATOM     38  C   UNL     1      -8.826  10.350  20.623  0.00  0.00    +0.033 C 
BRANCH  37  39
ATOM     39  C   UNL     1      -6.644  10.161  19.326  0.00  0.00    +0.106 C 
BRANCH  39  40
ATOM     40  C   UNL     1      -6.483  11.669  19.269  0.00  0.00    +0.165 C 
ATOM     41  O   UNL     1      -7.087  12.364  18.455  0.00  0.00    -0.292 OA
BRANCH  40  42
ATOM     42  C   UNL     1      -5.527  12.327  20.209  0.00  0.00    +0.017 A 
ATOM     43  C   UNL     1      -4.146  12.098  20.160  0.00  0.00    +0.011 A 
ATOM     44  C   UNL     1      -3.294  12.773  21.037  0.00  0.00    +0.001 A 
ATOM     45  C   UNL     1      -3.812  13.672  21.968  0.00  0.00    +0.000 A 
ATOM     46  C   UNL     1      -5.184  13.897  22.030  0.00  0.00    +0.001 A 
ATOM     47  C   UNL     1      -6.039  13.228  21.154  0.00  0.00    +0.011 A 
ENDBRANCH  40  42
ENDBRANCH  39  40
ENDBRANCH  37  39
ENDBRANCH  35  37
ENDBRANCH  31  33
ENDBRANCH  30  31
ENDBRANCH  26  30
ENDBRANCH  25  28
ENDBRANCH   1  25
TORSDOF 17
