REMARK VINA RESULT:    -4.609      5.166      8.714
REMARK INTER + INTRA:         -10.950
REMARK INTER:                  -8.824
REMARK INTRA:                  -2.126
REMARK UNBOUND:                -2.299
REMARK  Name = lig_assembled_32.pdb
REMARK  19 active torsions:
REMARK  status: ('A' for Active; 'I' for Inactive)
REMARK    1  A    between atoms: _2  and  _9
REMARK    2  A    between atoms: _4  and  _17
REMARK    3  A    between atoms: _5  and  _10
REMARK    4  A    between atoms: _5  and  _11
REMARK    5  A    between atoms: _6  and  _7
REMARK    6  A    between atoms: _6  and  _17
REMARK    7  A    between atoms: _9  and  _10
REMARK    8  A    between atoms: _13  and  _33
REMARK    9  A    between atoms: _15  and  _21
REMARK   10  A    between atoms: _16  and  _20
REMARK   11  A    between atoms: _20  and  _21
REMARK   12  A    between atoms: _23  and  _24
REMARK   13  A    between atoms: _25  and  _26
REMARK   14  A    between atoms: _27  and  _29
REMARK   15  A    between atoms: _29  and  _30
REMARK   16  A    between atoms: _29  and  _31
REMARK   17  A    between atoms: _31  and  _32
REMARK   18  A    between atoms: _31  and  _33
REMARK   19  A    between atoms: _34  and  _36
REMARK                            x       y       z     vdW  Elec       q    Type
REMARK                         _______ _______ _______ _____ _____    ______ ____
ROOT
ATOM      1  C   UNL     1      -4.128  11.455  22.154  0.00  0.00    +0.163 C 
ENDROOT
BRANCH   1   2
ATOM      2  O   UNL     1      -3.717  10.323  21.370  0.00  0.00    -0.388 OA
ATOM      3  H   UNL     1      -3.147   9.758  21.897  0.00  0.00    +0.210 HD
ENDBRANCH   1   2
BRANCH   1   4
ATOM      4  C   UNL     1      -3.056  11.823  23.194  0.00  0.00    +0.175 C 
BRANCH   4   5
ATOM      5  C   UNL     1      -3.375  11.244  24.581  0.00  0.00    +0.176 C 
ATOM      6  O   UNL     1      -3.154   9.808  24.528  0.00  0.00    -0.332 OA
ATOM      7  C   UNL     1      -3.308   9.095  25.800  0.00  0.00    +0.277 C 
ATOM      8  C   UNL     1      -4.696   9.389  26.420  0.00  0.00    +0.110 C 
ATOM      9  C   UNL     1      -4.989  10.903  26.469  0.00  0.00    +0.143 C 
ATOM     10  C   UNL     1      -4.796  11.544  25.094  0.00  0.00    +0.133 C 
BRANCH  10  11
ATOM     11  N   UNL     1      -4.993  13.000  25.171  0.00  0.00    -0.308 N 
ATOM     12  H   UNL     1      -4.302  13.544  25.669  0.00  0.00    +0.149 HD
ATOM     13  C   UNL     1      -6.025  13.650  24.627  0.00  0.00    +0.210 C 
ATOM     14  C   UNL     1      -7.075  12.790  23.898  0.00  0.00    +0.109 C 
ATOM     15  O   UNL     1      -6.157  14.873  24.696  0.00  0.00    -0.276 OA
ENDBRANCH  10  11
BRANCH   7  16
ATOM     16  C   UNL     1      -2.202   9.505  26.794  0.00  0.00    +0.414 C 
ATOM     17  O   UNL     1      -2.439   9.552  28.000  0.00  0.00    -0.240 OA
ATOM     18  O   UNL     1      -1.074   9.790  26.390  0.00  0.00    -0.240 OA
ENDBRANCH   7  16
BRANCH   7  19
ATOM     19  O   UNL     1      -3.220   7.672  25.531  0.00  0.00    -0.343 OA
ATOM     20  C   UNL     1      -4.002   7.213  24.399  0.00  0.00    +0.198 C 
ENDBRANCH   7  19
BRANCH   9  21
ATOM     21  O   UNL     1      -6.332  11.121  26.904  0.00  0.00    -0.390 OA
ATOM     22  H   UNL     1      -6.704  11.871  26.435  0.00  0.00    +0.210 HD
ENDBRANCH   9  21
ENDBRANCH   4   5
BRANCH   4  23
ATOM     23  O   UNL     1      -2.913  13.255  23.275  0.00  0.00    -0.387 OA
ATOM     24  H   UNL     1      -2.347  13.479  24.017  0.00  0.00    +0.210 HD
ENDBRANCH   4  23
ENDBRANCH   1   4
BRANCH   1  25
ATOM     25  C   UNL     1      -4.388  12.652  21.245  0.00  0.00    +0.141 C 
BRANCH  25  28
ATOM     26  C   UNL     1      -6.194  12.309  19.594  0.00  0.00    +0.401 C 
ATOM     27  O   UNL     1      -7.086  12.710  20.346  0.00  0.00    -0.226 OA
ATOM     28  N   UNL     1      -4.907  12.242  19.935  0.00  0.00    -0.279 N 
ATOM     29  H   UNL     1      -4.251  11.890  19.252  0.00  0.00    +0.152 HD
BRANCH  26  30
ATOM     30  O   UNL     1      -6.539  11.880  18.275  0.00  0.00    -0.444 OA
BRANCH  30  31
ATOM     31  C   UNL     1      -5.805  10.697  17.950  0.00  0.00    +0.292 C 
BRANCH  31  33
ATOM     32  N   UNL     1      -4.334  12.159  16.600  0.00  0.00    -0.131 NA
ATOM     33  C   UNL     1      -4.929  10.939  16.789  0.00  0.00    +0.120 A 
ATOM     34  C   UNL     1      -4.564  10.097  15.762  0.00  0.00    +0.137 A 
ATOM     35  N   UNL     1      -3.759  10.867  14.979  0.00  0.00    -0.251 N 
ATOM     36  N   UNL     1      -3.621  12.104  15.484  0.00  0.00    -0.065 NA
BRANCH  35  37
ATOM     37  C   UNL     1      -3.088  10.502  13.752  0.00  0.00    +0.156 C 
BRANCH  37  38
ATOM     38  C   UNL     1      -3.372  11.490  12.630  0.00  0.00    +0.143 C 
BRANCH  38  39
ATOM     39  C   UNL     1      -2.131  12.268  12.297  0.00  0.00    +0.306 C 
ATOM     40  O   UNL     1      -1.480  12.136  11.273  0.00  0.00    -0.251 OA
BRANCH  39  41
ATOM     41  O   UNL     1      -1.785  13.140  13.270  0.00  0.00    -0.481 OA
ATOM     42  H   UNL     1      -2.329  13.951  13.295  0.00  0.00    +0.295 HD
ENDBRANCH  39  41
ENDBRANCH  38  39
ENDBRANCH  37  38
ENDBRANCH  35  37
ENDBRANCH  31  33
ENDBRANCH  30  31
ENDBRANCH  26  30
ENDBRANCH  25  28
ENDBRANCH   1  25
TORSDOF 17
