REMARK VINA RESULT:    -4.993      7.445     14.353
REMARK INTER + INTRA:         -11.899
REMARK INTER:                  -9.101
REMARK INTRA:                  -2.798
REMARK UNBOUND:                -2.966
REMARK  Name = lig_assembled_89.pdb
REMARK  19 active torsions:
REMARK  status: ('A' for Active; 'I' for Inactive)
REMARK    1  A    between atoms: _2  and  _12
REMARK    2  A    between atoms: _5  and  _20
REMARK    3  A    between atoms: _7  and  _29
REMARK    4  A    between atoms: _9  and  _10
REMARK    5  A    between atoms: _9  and  _29
REMARK    6  A    between atoms: _20  and  _21
REMARK    7  A    between atoms: _20  and  _22
REMARK    8  A    between atoms: _25  and  _45
REMARK    9  A    between atoms: _27  and  _33
REMARK   10  A    between atoms: _28  and  _32
REMARK   11  A    between atoms: _32  and  _33
REMARK   12  A    between atoms: _35  and  _36
REMARK   13  A    between atoms: _37  and  _38
REMARK   14  A    between atoms: _39  and  _41
REMARK   15  A    between atoms: _41  and  _42
REMARK   16  A    between atoms: _41  and  _43
REMARK   17  A    between atoms: _43  and  _44
REMARK   18  A    between atoms: _43  and  _45
REMARK   19  A    between atoms: _46  and  _48
REMARK                            x       y       z     vdW  Elec       q    Type
REMARK                         _______ _______ _______ _____ _____    ______ ____
ROOT
ATOM      1  C   UNL     1      -3.625   7.911  31.337  0.00  0.00    +0.401 C 
ATOM      2  O   UNL     1      -4.663   7.423  31.789  0.00  0.00    -0.226 OA
ATOM      3  N   UNL     1      -2.953   8.905  31.920  0.00  0.00    -0.279 N 
ATOM      4  H   UNL     1      -2.106   9.232  31.477  0.00  0.00    +0.152 HD
ENDROOT
BRANCH   3   5
ATOM      5  C   UNL     1      -3.375   9.550  33.170  0.00  0.00    +0.141 C 
BRANCH   5   6
ATOM      6  C   UNL     1      -4.072  10.882  32.915  0.00  0.00    +0.163 C 
BRANCH   6   7
ATOM      7  O   UNL     1      -4.977  11.178  33.990  0.00  0.00    -0.388 OA
ATOM      8  H   UNL     1      -4.684  11.969  34.449  0.00  0.00    +0.210 HD
ENDBRANCH   6   7
BRANCH   6   9
ATOM      9  C   UNL     1      -3.018  11.993  32.763  0.00  0.00    +0.175 C 
BRANCH   9  10
ATOM     10  C   UNL     1      -3.581  13.231  32.049  0.00  0.00    +0.176 C 
ATOM     11  O   UNL     1      -4.441  13.934  32.987  0.00  0.00    -0.332 OA
ATOM     12  C   UNL     1      -4.989  15.208  32.512  0.00  0.00    +0.277 C 
ATOM     13  C   UNL     1      -5.731  15.010  31.168  0.00  0.00    +0.110 C 
ATOM     14  C   UNL     1      -4.867  14.238  30.148  0.00  0.00    +0.143 C 
ATOM     15  C   UNL     1      -4.348  12.931  30.748  0.00  0.00    +0.133 C 
BRANCH  15  16
ATOM     16  N   UNL     1      -3.456  12.248  29.798  0.00  0.00    -0.308 N 
ATOM     17  H   UNL     1      -2.546  12.654  29.630  0.00  0.00    +0.149 HD
ATOM     18  C   UNL     1      -3.770  11.126  29.144  0.00  0.00    +0.210 C 
ATOM     19  C   UNL     1      -5.173  10.547  29.403  0.00  0.00    +0.109 C 
ATOM     20  O   UNL     1      -2.996  10.567  28.365  0.00  0.00    -0.276 OA
ENDBRANCH  15  16
BRANCH  12  21
ATOM     21  C   UNL     1      -3.868  16.253  32.333  0.00  0.00    +0.414 C 
ATOM     22  O   UNL     1      -2.849  16.193  33.020  0.00  0.00    -0.240 OA
ATOM     23  O   UNL     1      -3.981  17.154  31.502  0.00  0.00    -0.240 OA
ENDBRANCH  12  21
BRANCH  14  24
ATOM     24  O   UNL     1      -5.641  13.947  28.984  0.00  0.00    -0.390 OA
ATOM     25  H   UNL     1      -5.431  14.580  28.293  0.00  0.00    +0.210 HD
ENDBRANCH  14  24
BRANCH  12  26
ATOM     26  O   UNL     1      -5.944  15.681  33.496  0.00  0.00    -0.343 OA
ATOM     27  C   UNL     1      -7.113  14.840  33.669  0.00  0.00    +0.198 C 
ENDBRANCH  12  26
ENDBRANCH   9  10
BRANCH   9  28
ATOM     28  O   UNL     1      -1.867  11.491  32.053  0.00  0.00    -0.387 OA
ATOM     29  H   UNL     1      -1.849  10.533  32.108  0.00  0.00    +0.210 HD
ENDBRANCH   9  28
ENDBRANCH   6   9
ENDBRANCH   5   6
ENDBRANCH   3   5
BRANCH   1  30
ATOM     30  O   UNL     1      -3.089   7.395  30.116  0.00  0.00    -0.444 OA
BRANCH  30  31
ATOM     31  C   UNL     1      -4.157   6.963  29.270  0.00  0.00    +0.292 C 
BRANCH  31  33
ATOM     32  N   UNL     1      -2.582   7.240  27.395  0.00  0.00    -0.131 NA
ATOM     33  C   UNL     1      -3.860   7.292  27.866  0.00  0.00    +0.121 A 
ATOM     34  C   UNL     1      -4.700   7.656  26.841  0.00  0.00    +0.145 A 
ATOM     35  N   UNL     1      -3.884   7.793  25.734  0.00  0.00    -0.199 N 
ATOM     36  N   UNL     1      -2.607   7.537  26.102  0.00  0.00    -0.059 NA
BRANCH  35  37
ATOM     37  C   UNL     1      -4.323   8.061  24.404  0.00  0.00    +0.186 A 
ATOM     38  C   UNL     1      -4.478   9.267  23.752  0.00  0.00    +0.158 A 
ATOM     39  C   UNL     1      -4.389  10.630  24.179  0.00  0.00    +0.280 A 
ATOM     40  O   UNL     1      -4.481  10.957  25.354  0.00  0.00    -0.265 OA
ATOM     41  N   UNL     1      -4.221  11.573  23.145  0.00  0.00    -0.302 N 
ATOM     42  C   UNL     1      -4.584  11.235  21.787  0.00  0.00    +0.069 A 
ATOM     43  C   UNL     1      -4.705  12.196  20.772  0.00  0.00    +0.028 A 
ATOM     44  C   UNL     1      -5.108  11.838  19.478  0.00  0.00    +0.002 A 
ATOM     45  C   UNL     1      -5.390  10.513  19.166  0.00  0.00    +0.002 A 
ATOM     46  C   UNL     1      -5.267   9.532  20.144  0.00  0.00    +0.028 A 
ATOM     47  C   UNL     1      -4.877   9.897  21.441  0.00  0.00    +0.072 A 
ATOM     48  N   UNL     1      -4.752   8.932  22.454  0.00  0.00    -0.291 N 
ATOM     49  C   UNL     1      -4.864   7.566  22.398  0.00  0.00    +0.207 A 
ATOM     50  N   UNL     1      -4.599   7.004  23.558  0.00  0.00    -0.216 NA
BRANCH  41  51
ATOM     51  C   UNL     1      -3.868  12.961  23.523  0.00  0.00    +0.085 C 
ATOM     52  C   UNL     1      -2.656  13.056  24.471  0.00  0.00    +0.030 C 
ATOM     53  C   UNL     1      -5.063  13.713  24.108  0.00  0.00    +0.030 C 
ENDBRANCH  41  51
ENDBRANCH  35  37
ENDBRANCH  31  33
ENDBRANCH  30  31
ENDBRANCH   1  30
TORSDOF 15
