REMARK VINA RESULT:    -4.441      4.077      7.339
REMARK INTER + INTRA:         -12.506
REMARK INTER:                  -7.915
REMARK INTRA:                  -4.591
REMARK UNBOUND:                -3.392
REMARK  Name = lig_assembled_47.pdb
REMARK  22 active torsions:
REMARK  status: ('A' for Active; 'I' for Inactive)
REMARK    1  A    between atoms: _2  and  _9
REMARK    2  A    between atoms: _4  and  _30
REMARK    3  A    between atoms: _6  and  _7
REMARK    4  A    between atoms: _6  and  _30
REMARK    5  A    between atoms: _9  and  _10
REMARK    6  A    between atoms: _10  and  _11
REMARK    7  A    between atoms: _10  and  _12
REMARK    8  A    between atoms: _11  and  _24
REMARK    9  A    between atoms: _12  and  _13
REMARK   10  A    between atoms: _12  and  _19
REMARK   11  A    between atoms: _26  and  _46
REMARK   12  A    between atoms: _28  and  _34
REMARK   13  A    between atoms: _29  and  _33
REMARK   14  A    between atoms: _33  and  _34
REMARK   15  A    between atoms: _36  and  _37
REMARK   16  A    between atoms: _38  and  _39
REMARK   17  A    between atoms: _40  and  _42
REMARK   18  A    between atoms: _42  and  _43
REMARK   19  A    between atoms: _42  and  _44
REMARK   20  A    between atoms: _44  and  _45
REMARK   21  A    between atoms: _44  and  _46
REMARK   22  A    between atoms: _47  and  _49
REMARK                            x       y       z     vdW  Elec       q    Type
REMARK                         _______ _______ _______ _____ _____    ______ ____
ROOT
ATOM      1  C   UNL     1      -3.284   7.770  29.654  0.00  0.00    +0.401 C 
ATOM      2  O   UNL     1      -2.138   7.317  29.703  0.00  0.00    -0.226 OA
ATOM      3  N   UNL     1      -3.769   8.666  30.515  0.00  0.00    -0.279 N 
ATOM      4  H   UNL     1      -4.719   8.985  30.386  0.00  0.00    +0.152 HD
ENDROOT
BRANCH   3   5
ATOM      5  C   UNL     1      -3.000   9.214  31.639  0.00  0.00    +0.141 C 
BRANCH   5   6
ATOM      6  C   UNL     1      -3.904   9.659  32.783  0.00  0.00    +0.163 C 
BRANCH   6   7
ATOM      7  O   UNL     1      -3.222  10.621  33.604  0.00  0.00    -0.388 OA
ATOM      8  H   UNL     1      -3.693  11.458  33.576  0.00  0.00    +0.210 HD
ENDBRANCH   6   7
BRANCH   6   9
ATOM      9  C   UNL     1      -5.205  10.248  32.211  0.00  0.00    +0.175 C 
BRANCH   9  10
ATOM     10  C   UNL     1      -5.021  11.694  31.727  0.00  0.00    +0.176 C 
ATOM     11  O   UNL     1      -4.990  12.556  32.897  0.00  0.00    -0.332 OA
ATOM     12  C   UNL     1      -4.714  13.972  32.634  0.00  0.00    +0.277 C 
ATOM     13  C   UNL     1      -5.715  14.535  31.596  0.00  0.00    +0.110 C 
ATOM     14  C   UNL     1      -5.807  13.634  30.347  0.00  0.00    +0.143 C 
ATOM     15  C   UNL     1      -6.094  12.183  30.736  0.00  0.00    +0.133 C 
BRANCH  15  16
ATOM     16  N   UNL     1      -6.093  11.320  29.545  0.00  0.00    -0.308 N 
ATOM     17  H   UNL     1      -5.253  11.290  28.985  0.00  0.00    +0.149 HD
ATOM     18  C   UNL     1      -7.130  10.574  29.155  0.00  0.00    +0.210 C 
ATOM     19  C   UNL     1      -8.405  10.661  30.015  0.00  0.00    +0.109 C 
ATOM     20  O   UNL     1      -7.095   9.848  28.160  0.00  0.00    -0.276 OA
ENDBRANCH  15  16
BRANCH  12  21
ATOM     21  C   UNL     1      -3.273  14.161  32.116  0.00  0.00    +0.414 C 
ATOM     22  O   UNL     1      -3.000  15.104  31.374  0.00  0.00    -0.240 OA
ATOM     23  O   UNL     1      -2.384  13.372  32.439  0.00  0.00    -0.240 OA
ENDBRANCH  12  21
BRANCH  12  24
ATOM     24  O   UNL     1      -4.885  14.701  33.877  0.00  0.00    -0.343 OA
ATOM     25  C   UNL     1      -5.562  15.977  33.750  0.00  0.00    +0.198 C 
ENDBRANCH  12  24
BRANCH  14  26
ATOM     26  O   UNL     1      -6.847  14.105  29.488  0.00  0.00    -0.390 OA
ATOM     27  H   UNL     1      -6.519  14.836  28.959  0.00  0.00    +0.210 HD
ENDBRANCH  14  26
ENDBRANCH   9  10
BRANCH   9  28
ATOM     28  O   UNL     1      -6.255  10.184  33.197  0.00  0.00    -0.387 OA
ATOM     29  H   UNL     1      -5.874  10.246  34.076  0.00  0.00    +0.210 HD
ENDBRANCH   9  28
ENDBRANCH   6   9
ENDBRANCH   5   6
ENDBRANCH   3   5
BRANCH   1  30
ATOM     30  O   UNL     1      -4.162   7.325  28.617  0.00  0.00    -0.444 OA
BRANCH  30  31
ATOM     31  C   UNL     1      -3.422   7.152  27.406  0.00  0.00    +0.292 C 
BRANCH  31  33
ATOM     32  N   UNL     1      -2.000   8.968  26.487  0.00  0.00    -0.131 NA
ATOM     33  C   UNL     1      -3.246   8.439  26.703  0.00  0.00    +0.120 A 
ATOM     34  C   UNL     1      -4.191   9.303  26.196  0.00  0.00    +0.137 A 
ATOM     35  N   UNL     1      -3.462  10.358  25.731  0.00  0.00    -0.251 N 
ATOM     36  N   UNL     1      -2.145  10.144  25.889  0.00  0.00    -0.065 NA
BRANCH  35  37
ATOM     37  C   UNL     1      -3.946  11.652  25.271  0.00  0.00    +0.160 C 
BRANCH  37  38
ATOM     38  C   UNL     1      -5.462  11.708  25.060  0.00  0.00    +0.131 C 
BRANCH  38  39
ATOM     39  C   UNL     1      -6.041  12.609  26.143  0.00  0.00    +0.311 C 
ATOM     40  O   UNL     1      -7.187  13.031  26.111  0.00  0.00    -0.251 OA
BRANCH  39  41
ATOM     41  O   UNL     1      -5.263  12.844  27.220  0.00  0.00    -0.480 OA
ATOM     42  H   UNL     1      -4.598  12.181  27.470  0.00  0.00    +0.295 HD
ENDBRANCH  39  41
ENDBRANCH  38  39
BRANCH  38  43
ATOM     43  C   UNL     1      -5.906  12.154  23.631  0.00  0.00    +0.064 C 
BRANCH  43  44
ATOM     44  C   UNL     1      -4.897  13.006  22.858  0.00  0.00    -0.039 A 
ATOM     45  C   UNL     1      -4.072  12.404  21.888  0.00  0.00    +0.004 A 
ATOM     46  C   UNL     1      -3.139  13.155  21.164  0.00  0.00    +0.000 A 
ATOM     47  C   UNL     1      -3.000  14.517  21.408  0.00  0.00    +0.000 A 
ATOM     48  C   UNL     1      -3.792  15.127  22.376  0.00  0.00    +0.000 A 
ATOM     49  C   UNL     1      -4.739  14.381  23.088  0.00  0.00    +0.004 A 
ENDBRANCH  43  44
BRANCH  43  50
ATOM     50  C   UNL     1      -6.406  10.946  22.829  0.00  0.00    -0.039 A 
ATOM     51  C   UNL     1      -7.303  11.123  21.763  0.00  0.00    +0.004 A 
ATOM     52  C   UNL     1      -7.895  10.018  21.142  0.00  0.00    +0.000 A 
ATOM     53  C   UNL     1      -7.581   8.727  21.558  0.00  0.00    +0.000 A 
ATOM     54  C   UNL     1      -6.667   8.534  22.586  0.00  0.00    +0.000 A 
ATOM     55  C   UNL     1      -6.085   9.634  23.216  0.00  0.00    +0.004 A 
ENDBRANCH  43  50
ENDBRANCH  38  43
ENDBRANCH  37  38
ENDBRANCH  35  37
ENDBRANCH  31  33
ENDBRANCH  30  31
ENDBRANCH   1  30
TORSDOF 20
