REMARK VINA RESULT:    -5.198      3.987      7.560
REMARK INTER + INTRA:         -11.007
REMARK INTER:                  -7.953
REMARK INTRA:                  -3.054
REMARK UNBOUND:                -2.010
REMARK  Name = lig_assembled_49.pdb
REMARK  16 active torsions:
REMARK  status: ('A' for Active; 'I' for Inactive)
REMARK    1  A    between atoms: _2  and  _9
REMARK    2  A    between atoms: _4  and  _17
REMARK    3  A    between atoms: _6  and  _7
REMARK    4  A    between atoms: _6  and  _17
REMARK    5  A    between atoms: _13  and  _33
REMARK    6  A    between atoms: _15  and  _21
REMARK    7  A    between atoms: _16  and  _20
REMARK    8  A    between atoms: _20  and  _21
REMARK    9  A    between atoms: _23  and  _24
REMARK   10  A    between atoms: _25  and  _26
REMARK   11  A    between atoms: _27  and  _29
REMARK   12  A    between atoms: _29  and  _30
REMARK   13  A    between atoms: _29  and  _31
REMARK   14  A    between atoms: _31  and  _32
REMARK   15  A    between atoms: _31  and  _33
REMARK   16  A    between atoms: _34  and  _36
REMARK                            x       y       z     vdW  Elec       q    Type
REMARK                         _______ _______ _______ _____ _____    ______ ____
ROOT
ATOM      1  C   UNL     1      -6.661   9.842  23.172  0.00  0.00    +0.175 C 
ENDROOT
BRANCH   1   2
ATOM      2  C   UNL     1      -5.310  10.519  23.445  0.00  0.00    +0.176 C 
ATOM      3  O   UNL     1      -5.512  11.520  24.480  0.00  0.00    -0.332 OA
ATOM      4  C   UNL     1      -4.302  12.202  24.949  0.00  0.00    +0.277 C 
ATOM      5  C   UNL     1      -3.538  12.828  23.757  0.00  0.00    +0.110 C 
ATOM      6  C   UNL     1      -3.326  11.809  22.617  0.00  0.00    +0.143 C 
ATOM      7  C   UNL     1      -4.649  11.159  22.210  0.00  0.00    +0.133 C 
BRANCH   7   8
ATOM      8  N   UNL     1      -4.422  10.129  21.184  0.00  0.00    -0.308 N 
ATOM      9  H   UNL     1      -3.860   9.328  21.437  0.00  0.00    +0.149 HD
ATOM     10  C   UNL     1      -4.910  10.183  19.942  0.00  0.00    +0.210 C 
ATOM     11  C   UNL     1      -5.740  11.429  19.581  0.00  0.00    +0.109 C 
ATOM     12  O   UNL     1      -4.716   9.297  19.109  0.00  0.00    -0.276 OA
ENDBRANCH   7   8
BRANCH   4  13
ATOM     13  C   UNL     1      -3.376  11.219  25.696  0.00  0.00    +0.414 C 
ATOM     14  O   UNL     1      -2.160  11.406  25.715  0.00  0.00    -0.240 OA
ATOM     15  O   UNL     1      -3.845  10.240  26.278  0.00  0.00    -0.240 OA
ENDBRANCH   4  13
BRANCH   6  16
ATOM     16  O   UNL     1      -2.756  12.466  21.484  0.00  0.00    -0.390 OA
ATOM     17  H   UNL     1      -1.871  12.769  21.700  0.00  0.00    +0.210 HD
ENDBRANCH   6  16
BRANCH   4  18
ATOM     18  O   UNL     1      -4.706  13.269  25.845  0.00  0.00    -0.343 OA
ATOM     19  C   UNL     1      -5.963  13.048  26.533  0.00  0.00    +0.198 C 
ENDBRANCH   4  18
ENDBRANCH   1   2
BRANCH   1  20
ATOM     20  O   UNL     1      -7.738  10.771  23.405  0.00  0.00    -0.387 OA
ATOM     21  H   UNL     1      -7.525  11.616  23.003  0.00  0.00    +0.210 HD
ENDBRANCH   1  20
BRANCH   1  22
ATOM     22  C   UNL     1      -6.857   8.577  24.025  0.00  0.00    +0.163 C 
BRANCH  22  23
ATOM     23  O   UNL     1      -6.191   8.703  25.292  0.00  0.00    -0.388 OA
ATOM     24  H   UNL     1      -6.550   9.455  25.770  0.00  0.00    +0.210 HD
ENDBRANCH  22  23
BRANCH  22  25
ATOM     25  C   UNL     1      -6.319   7.365  23.272  0.00  0.00    +0.141 C 
BRANCH  25  28
ATOM     26  C   UNL     1      -3.894   6.934  23.472  0.00  0.00    +0.401 C 
ATOM     27  O   UNL     1      -3.604   7.552  22.445  0.00  0.00    -0.226 OA
ATOM     28  N   UNL     1      -5.139   6.791  23.929  0.00  0.00    -0.279 N 
ATOM     29  H   UNL     1      -5.278   6.258  24.776  0.00  0.00    +0.152 HD
BRANCH  26  30
ATOM     30  O   UNL     1      -2.850   6.322  24.232  0.00  0.00    -0.444 OA
BRANCH  30  31
ATOM     31  C   UNL     1      -3.403   5.719  25.405  0.00  0.00    +0.292 C 
BRANCH  31  33
ATOM     32  N   UNL     1      -1.864   6.971  26.881  0.00  0.00    -0.131 NA
ATOM     33  C   UNL     1      -3.136   6.557  26.589  0.00  0.00    +0.120 A 
ATOM     34  C   UNL     1      -3.998   7.039  27.547  0.00  0.00    +0.137 A 
ATOM     35  N   UNL     1      -3.189   7.734  28.398  0.00  0.00    -0.248 N 
ATOM     36  N   UNL     1      -1.909   7.693  27.992  0.00  0.00    -0.065 NA
BRANCH  35  37
ATOM     37  C   UNL     1      -3.567   8.428  29.605  0.00  0.00    +0.109 C 
ATOM     38  C   UNL     1      -3.094   7.742  30.888  0.00  0.00    +0.027 C 
ATOM     39  C   UNL     1      -3.212   8.845  31.926  0.00  0.00    +0.002 C 
ATOM     40  C   UNL     1      -2.741  10.097  31.197  0.00  0.00    +0.002 C 
ATOM     41  C   UNL     1      -3.027   9.861  29.712  0.00  0.00    +0.027 C 
ENDBRANCH  35  37
ENDBRANCH  31  33
ENDBRANCH  30  31
ENDBRANCH  26  30
ENDBRANCH  25  28
ENDBRANCH  22  25
ENDBRANCH   1  22
TORSDOF 14
