REMARK VINA RESULT:    -4.682      2.586      3.850
REMARK INTER + INTRA:         -10.598
REMARK INTER:                  -8.501
REMARK INTRA:                  -2.097
REMARK UNBOUND:                -2.494
REMARK  Name = lig_assembled_56.pdb
REMARK  16 active torsions:
REMARK  status: ('A' for Active; 'I' for Inactive)
REMARK    1  A    between atoms: _2  and  _10
REMARK    2  A    between atoms: _5  and  _18
REMARK    3  A    between atoms: _7  and  _8
REMARK    4  A    between atoms: _7  and  _18
REMARK    5  A    between atoms: _14  and  _34
REMARK    6  A    between atoms: _16  and  _22
REMARK    7  A    between atoms: _17  and  _21
REMARK    8  A    between atoms: _21  and  _22
REMARK    9  A    between atoms: _24  and  _25
REMARK   10  A    between atoms: _26  and  _27
REMARK   11  A    between atoms: _28  and  _30
REMARK   12  A    between atoms: _30  and  _31
REMARK   13  A    between atoms: _30  and  _32
REMARK   14  A    between atoms: _32  and  _33
REMARK   15  A    between atoms: _32  and  _34
REMARK   16  A    between atoms: _35  and  _37
REMARK                            x       y       z     vdW  Elec       q    Type
REMARK                         _______ _______ _______ _____ _____    ______ ____
ROOT
ATOM      1  C   UNL     1      -2.942  11.868  22.464  0.00  0.00    +0.163 C 
ENDROOT
BRANCH   1   2
ATOM      2  O   UNL     1      -2.888  12.768  23.583  0.00  0.00    -0.388 OA
ATOM      3  H   UNL     1      -3.744  13.185  23.701  0.00  0.00    +0.210 HD
ENDBRANCH   1   2
BRANCH   1   4
ATOM      4  C   UNL     1      -3.593  12.559  21.270  0.00  0.00    +0.141 C 
BRANCH   4   7
ATOM      5  C   UNL     1      -5.619  11.936  20.000  0.00  0.00    +0.401 C 
ATOM      6  O   UNL     1      -6.176  13.021  20.174  0.00  0.00    -0.226 OA
ATOM      7  N   UNL     1      -4.413  11.631  20.481  0.00  0.00    -0.279 N 
ATOM      8  H   UNL     1      -4.043  10.710  20.293  0.00  0.00    +0.152 HD
BRANCH   5   9
ATOM      9  O   UNL     1      -6.288  10.925  19.241  0.00  0.00    -0.444 OA
BRANCH   9  10
ATOM     10  C   UNL     1      -6.775  11.488  18.020  0.00  0.00    +0.292 C 
BRANCH  10  12
ATOM     11  N   UNL     1      -5.008  12.466  16.592  0.00  0.00    -0.131 NA
ATOM     12  C   UNL     1      -5.752  11.385  16.964  0.00  0.00    +0.121 A 
ATOM     13  C   UNL     1      -5.368  10.296  16.213  0.00  0.00    +0.143 A 
ATOM     14  N   UNL     1      -4.361  10.764  15.399  0.00  0.00    -0.220 N 
ATOM     15  N   UNL     1      -4.168  12.084  15.640  0.00  0.00    -0.060 NA
BRANCH  14  16
ATOM     16  C   UNL     1      -3.588  10.056  14.446  0.00  0.00    +0.070 A 
ATOM     17  C   UNL     1      -3.808  10.221  13.076  0.00  0.00    +0.047 A 
ATOM     18  C   UNL     1      -3.027   9.485  12.199  0.00  0.00    +0.113 A 
ATOM     19  N   UNL     1      -2.067   8.621  12.590  0.00  0.00    -0.263 NA
ATOM     20  C   UNL     1      -1.873   8.483  13.919  0.00  0.00    +0.113 A 
ATOM     21  C   UNL     1      -2.597   9.170  14.877  0.00  0.00    +0.047 A 
ENDBRANCH  14  16
ENDBRANCH  10  12
ENDBRANCH   9  10
ENDBRANCH   5   9
ENDBRANCH   4   7
ENDBRANCH   1   4
BRANCH   1  22
ATOM     22  C   UNL     1      -3.734  10.598  22.818  0.00  0.00    +0.175 C 
BRANCH  22  23
ATOM     23  C   UNL     1      -3.863  10.401  24.335  0.00  0.00    +0.176 C 
ATOM     24  O   UNL     1      -3.383   9.066  24.656  0.00  0.00    -0.332 OA
ATOM     25  C   UNL     1      -3.332   8.737  26.083  0.00  0.00    +0.277 C 
ATOM     26  C   UNL     1      -4.715   8.967  26.741  0.00  0.00    +0.110 C 
ATOM     27  C   UNL     1      -5.282  10.362  26.402  0.00  0.00    +0.143 C 
ATOM     28  C   UNL     1      -5.285  10.600  24.892  0.00  0.00    +0.133 C 
BRANCH  28  29
ATOM     29  N   UNL     1      -5.746  11.964  24.587  0.00  0.00    -0.308 N 
ATOM     30  H   UNL     1      -5.291  12.732  25.060  0.00  0.00    +0.149 HD
ATOM     31  C   UNL     1      -6.726  12.253  23.726  0.00  0.00    +0.210 C 
ATOM     32  C   UNL     1      -7.417  11.059  23.042  0.00  0.00    +0.109 C 
ATOM     33  O   UNL     1      -7.081  13.406  23.480  0.00  0.00    -0.276 OA
ENDBRANCH  28  29
BRANCH  25  34
ATOM     34  C   UNL     1      -2.269   9.591  26.805  0.00  0.00    +0.414 C 
ATOM     35  O   UNL     1      -2.471   9.995  27.949  0.00  0.00    -0.240 OA
ATOM     36  O   UNL     1      -1.211   9.877  26.243  0.00  0.00    -0.240 OA
ENDBRANCH  25  34
BRANCH  27  37
ATOM     37  O   UNL     1      -6.616  10.473  26.900  0.00  0.00    -0.390 OA
ATOM     38  H   UNL     1      -6.643  10.179  27.813  0.00  0.00    +0.210 HD
ENDBRANCH  27  37
BRANCH  25  39
ATOM     39  O   UNL     1      -2.995   7.331  26.208  0.00  0.00    -0.343 OA
ATOM     40  C   UNL     1      -3.984   6.522  26.893  0.00  0.00    +0.198 C 
ENDBRANCH  25  39
ENDBRANCH  22  23
BRANCH  22  41
ATOM     41  O   UNL     1      -3.114   9.443  22.218  0.00  0.00    -0.387 OA
ATOM     42  H   UNL     1      -3.268   8.673  22.771  0.00  0.00    +0.210 HD
ENDBRANCH  22  41
ENDBRANCH   1  22
TORSDOF 14
