REMARK VINA RESULT:    -5.692      3.555     11.438
REMARK INTER + INTRA:         -12.326
REMARK INTER:                  -8.949
REMARK INTRA:                  -3.377
REMARK UNBOUND:                -2.475
REMARK  Name = lig_assembled_25.pdb
REMARK  16 active torsions:
REMARK  status: ('A' for Active; 'I' for Inactive)
REMARK    1  A    between atoms: _2  and  _9
REMARK    2  A    between atoms: _4  and  _25
REMARK    3  A    between atoms: _6  and  _7
REMARK    4  A    between atoms: _6  and  _25
REMARK    5  A    between atoms: _21  and  _41
REMARK    6  A    between atoms: _23  and  _29
REMARK    7  A    between atoms: _24  and  _28
REMARK    8  A    between atoms: _28  and  _29
REMARK    9  A    between atoms: _31  and  _32
REMARK   10  A    between atoms: _33  and  _34
REMARK   11  A    between atoms: _35  and  _37
REMARK   12  A    between atoms: _37  and  _38
REMARK   13  A    between atoms: _37  and  _39
REMARK   14  A    between atoms: _39  and  _40
REMARK   15  A    between atoms: _39  and  _41
REMARK   16  A    between atoms: _42  and  _44
REMARK                            x       y       z     vdW  Elec       q    Type
REMARK                         _______ _______ _______ _____ _____    ______ ____
ROOT
ATOM      1  C   UNL     1      -5.329   7.509  23.196  0.00  0.00    +0.141 C 
ENDROOT
BRANCH   1   4
ATOM      2  C   UNL     1      -3.366   6.391  24.198  0.00  0.00    +0.401 C 
ATOM      3  O   UNL     1      -3.510   5.351  23.550  0.00  0.00    -0.226 OA
ATOM      4  N   UNL     1      -4.174   7.448  24.099  0.00  0.00    -0.279 N 
ATOM      5  H   UNL     1      -3.979   8.252  24.679  0.00  0.00    +0.152 HD
BRANCH   2   6
ATOM      6  O   UNL     1      -2.277   6.491  25.119  0.00  0.00    -0.444 OA
BRANCH   6   7
ATOM      7  C   UNL     1      -2.629   5.848  26.346  0.00  0.00    +0.292 C 
BRANCH   7   9
ATOM      8  N   UNL     1      -1.780   7.533  27.939  0.00  0.00    -0.131 NA
ATOM      9  C   UNL     1      -2.840   6.848  27.410  0.00  0.00    +0.120 A 
ATOM     10  C   UNL     1      -3.996   7.247  28.043  0.00  0.00    +0.138 A 
ATOM     11  N   UNL     1      -3.575   8.166  28.962  0.00  0.00    -0.240 N 
ATOM     12  N   UNL     1      -2.238   8.341  28.885  0.00  0.00    -0.064 NA
BRANCH  11  13
ATOM     13  C   UNL     1      -4.322   8.863  29.996  0.00  0.00    +0.170 C 
ATOM     14  C   UNL     1      -4.066  10.364  29.987  0.00  0.00    -0.011 A 
ATOM     15  C   UNL     1      -3.619  10.785  31.260  0.00  0.00    -0.012 A 
ATOM     16  C   UNL     1      -3.538   9.632  32.134  0.00  0.00    -0.012 A 
ATOM     17  C   UNL     1      -3.189   9.545  33.472  0.00  0.00    +0.009 A 
ATOM     18  C   UNL     1      -3.227   8.291  34.089  0.00  0.00    +0.001 A 
ATOM     19  C   UNL     1      -3.605   7.145  33.369  0.00  0.00    +0.000 A 
ATOM     20  C   UNL     1      -3.957   7.230  32.019  0.00  0.00    +0.006 A 
ATOM     21  C   UNL     1      -3.343  12.119  31.500  0.00  0.00    +0.009 A 
ATOM     22  C   UNL     1      -3.518  13.035  30.457  0.00  0.00    +0.001 A 
ATOM     23  C   UNL     1      -3.967  12.613  29.196  0.00  0.00    +0.000 A 
ATOM     24  C   UNL     1      -4.250  11.268  28.950  0.00  0.00    +0.006 A 
ATOM     25  C   UNL     1      -3.918   8.476  31.413  0.00  0.00    -0.011 A 
ENDBRANCH  11  13
ENDBRANCH   7   9
ENDBRANCH   6   7
ENDBRANCH   2   6
ENDBRANCH   1   4
BRANCH   1  26
ATOM     26  C   UNL     1      -6.403   8.463  23.709  0.00  0.00    +0.163 C 
BRANCH  26  27
ATOM     27  O   UNL     1      -6.217   8.703  25.113  0.00  0.00    -0.388 OA
ATOM     28  H   UNL     1      -6.688   9.500  25.368  0.00  0.00    +0.210 HD
ENDBRANCH  26  27
BRANCH  26  29
ATOM     29  C   UNL     1      -6.344   9.778  22.913  0.00  0.00    +0.175 C 
BRANCH  29  30
ATOM     30  C   UNL     1      -5.064  10.575  23.207  0.00  0.00    +0.176 C 
ATOM     31  O   UNL     1      -5.328  11.441  24.345  0.00  0.00    -0.332 OA
ATOM     32  C   UNL     1      -4.179  12.206  24.838  0.00  0.00    +0.277 C 
ATOM     33  C   UNL     1      -3.543  13.028  23.691  0.00  0.00    +0.110 C 
ATOM     34  C   UNL     1      -3.273  12.155  22.447  0.00  0.00    +0.143 C 
ATOM     35  C   UNL     1      -4.534  11.402  22.022  0.00  0.00    +0.133 C 
BRANCH  35  36
ATOM     36  N   UNL     1      -4.242  10.508  20.890  0.00  0.00    -0.308 N 
ATOM     37  H   UNL     1      -3.585   9.756  21.040  0.00  0.00    +0.149 HD
ATOM     38  C   UNL     1      -4.790  10.626  19.677  0.00  0.00    +0.210 C 
ATOM     39  C   UNL     1      -5.767  11.798  19.473  0.00  0.00    +0.109 C 
ATOM     40  O   UNL     1      -4.538   9.853  18.752  0.00  0.00    -0.276 OA
ENDBRANCH  35  36
BRANCH  32  41
ATOM     41  C   UNL     1      -3.119  11.268  25.450  0.00  0.00    +0.414 C 
ATOM     42  O   UNL     1      -1.972  11.669  25.643  0.00  0.00    -0.240 OA
ATOM     43  O   UNL     1      -3.410  10.109  25.751  0.00  0.00    -0.240 OA
ENDBRANCH  32  41
BRANCH  34  44
ATOM     44  O   UNL     1      -2.830  12.979  21.368  0.00  0.00    -0.390 OA
ATOM     45  H   UNL     1      -2.690  13.874  21.684  0.00  0.00    +0.210 HD
ENDBRANCH  34  44
BRANCH  32  46
ATOM     46  O   UNL     1      -4.657  13.129  25.851  0.00  0.00    -0.343 OA
ATOM     47  C   UNL     1      -6.098  13.182  26.001  0.00  0.00    +0.198 C 
ENDBRANCH  32  46
ENDBRANCH  29  30
BRANCH  29  48
ATOM     48  O   UNL     1      -7.506  10.583  23.198  0.00  0.00    -0.387 OA
ATOM     49  H   UNL     1      -8.250  10.264  22.682  0.00  0.00    +0.210 HD
ENDBRANCH  29  48
ENDBRANCH  26  29
ENDBRANCH   1  26
TORSDOF 14
