REMARK VINA RESULT:    -5.087      5.743     11.508
REMARK INTER + INTRA:         -11.788
REMARK INTER:                  -8.898
REMARK INTRA:                  -2.890
REMARK UNBOUND:                -2.389
REMARK  Name = lig_assembled_92.pdb
REMARK  18 active torsions:
REMARK  status: ('A' for Active; 'I' for Inactive)
REMARK    1  A    between atoms: _2  and  _11
REMARK    2  A    between atoms: _3  and  _46
REMARK    3  A    between atoms: _6  and  _25
REMARK    4  A    between atoms: _8  and  _9
REMARK    5  A    between atoms: _8  and  _25
REMARK    6  A    between atoms: _14  and  _46
REMARK    7  A    between atoms: _21  and  _41
REMARK    8  A    between atoms: _23  and  _29
REMARK    9  A    between atoms: _24  and  _28
REMARK   10  A    between atoms: _28  and  _29
REMARK   11  A    between atoms: _31  and  _32
REMARK   12  A    between atoms: _33  and  _34
REMARK   13  A    between atoms: _35  and  _37
REMARK   14  A    between atoms: _37  and  _38
REMARK   15  A    between atoms: _37  and  _39
REMARK   16  A    between atoms: _39  and  _40
REMARK   17  A    between atoms: _39  and  _41
REMARK   18  A    between atoms: _42  and  _44
REMARK                            x       y       z     vdW  Elec       q    Type
REMARK                         _______ _______ _______ _____ _____    ______ ____
ROOT
ATOM      1  C   UNL     1      -5.152   7.132  22.181  0.00  0.00    +0.401 C 
ATOM      2  O   UNL     1      -4.232   6.371  22.492  0.00  0.00    -0.226 OA
ATOM      3  N   UNL     1      -6.206   7.383  22.958  0.00  0.00    -0.279 N 
ATOM      4  H   UNL     1      -6.905   8.029  22.620  0.00  0.00    +0.152 HD
ENDROOT
BRANCH   3   5
ATOM      5  C   UNL     1      -6.409   6.773  24.278  0.00  0.00    +0.141 C 
BRANCH   5   6
ATOM      6  C   UNL     1      -6.503   7.822  25.381  0.00  0.00    +0.163 C 
BRANCH   6   7
ATOM      7  O   UNL     1      -7.331   7.337  26.451  0.00  0.00    -0.388 OA
ATOM      8  H   UNL     1      -8.236   7.625  26.312  0.00  0.00    +0.210 HD
ENDBRANCH   6   7
BRANCH   6   9
ATOM      9  C   UNL     1      -5.091   8.162  25.888  0.00  0.00    +0.175 C 
BRANCH   9  10
ATOM     10  C   UNL     1      -4.663   9.584  25.496  0.00  0.00    +0.176 C 
ATOM     11  O   UNL     1      -4.415   9.598  24.064  0.00  0.00    -0.332 OA
ATOM     12  C   UNL     1      -4.096  10.908  23.488  0.00  0.00    +0.277 C 
ATOM     13  C   UNL     1      -2.899  11.549  24.233  0.00  0.00    +0.110 C 
ATOM     14  C   UNL     1      -3.104  11.529  25.762  0.00  0.00    +0.143 C 
ATOM     15  C   UNL     1      -3.433  10.119  26.253  0.00  0.00    +0.133 C 
BRANCH  15  16
ATOM     16  N   UNL     1      -3.711  10.128  27.698  0.00  0.00    -0.308 N 
ATOM     17  H   UNL     1      -4.463  10.716  28.030  0.00  0.00    +0.149 HD
ATOM     18  C   UNL     1      -3.035   9.411  28.599  0.00  0.00    +0.210 C 
ATOM     19  C   UNL     1      -1.878   8.546  28.065  0.00  0.00    +0.109 C 
ATOM     20  O   UNL     1      -3.299   9.427  29.802  0.00  0.00    -0.276 OA
ENDBRANCH  15  16
BRANCH  12  21
ATOM     21  C   UNL     1      -5.315  11.850  23.563  0.00  0.00    +0.414 C 
ATOM     22  O   UNL     1      -5.177  13.014  23.938  0.00  0.00    -0.240 OA
ATOM     23  O   UNL     1      -6.436  11.447  23.250  0.00  0.00    -0.240 OA
ENDBRANCH  12  21
BRANCH  14  24
ATOM     24  O   UNL     1      -1.918  11.988  26.413  0.00  0.00    -0.390 OA
ATOM     25  H   UNL     1      -1.901  12.948  26.408  0.00  0.00    +0.210 HD
ENDBRANCH  14  24
BRANCH  12  26
ATOM     26  O   UNL     1      -3.718  10.709  22.102  0.00  0.00    -0.343 OA
ATOM     27  C   UNL     1      -2.925  11.776  21.524  0.00  0.00    +0.198 C 
ENDBRANCH  12  26
ENDBRANCH   9  10
BRANCH   9  28
ATOM     28  O   UNL     1      -4.139   7.202  25.388  0.00  0.00    -0.387 OA
ATOM     29  H   UNL     1      -3.736   7.539  24.585  0.00  0.00    +0.210 HD
ENDBRANCH   9  28
ENDBRANCH   6   9
ENDBRANCH   5   6
ENDBRANCH   3   5
BRANCH   1  30
ATOM     30  O   UNL     1      -5.104   7.799  20.917  0.00  0.00    -0.444 OA
BRANCH  30  31
ATOM     31  C   UNL     1      -6.200   8.713  20.818  0.00  0.00    +0.292 C 
BRANCH  31  33
ATOM     32  N   UNL     1      -6.312  11.003  19.876  0.00  0.00    -0.131 NA
ATOM     33  C   UNL     1      -5.955   9.692  19.743  0.00  0.00    +0.121 A 
ATOM     34  C   UNL     1      -5.367   9.510  18.513  0.00  0.00    +0.143 A 
ATOM     35  N   UNL     1      -5.359  10.758  17.933  0.00  0.00    -0.220 N 
ATOM     36  N   UNL     1      -5.953  11.644  18.770  0.00  0.00    -0.060 NA
BRANCH  35  37
ATOM     37  C   UNL     1      -4.807  11.146  16.687  0.00  0.00    +0.067 A 
ATOM     38  C   UNL     1      -3.846  10.341  16.055  0.00  0.00    +0.030 A 
ATOM     39  C   UNL     1      -3.261  10.755  14.859  0.00  0.00    +0.031 A 
ATOM     40  C   UNL     1      -3.642  11.968  14.282  0.00  0.00    +0.109 A 
ATOM     41  C   UNL     1      -4.604  12.776  14.894  0.00  0.00    +0.031 A 
ATOM     42  C   UNL     1      -5.194  12.359  16.093  0.00  0.00    +0.030 A 
BRANCH  40  43
ATOM     43  S   UNL     1      -2.769  12.532  12.845  0.00  0.00    +0.074 S 
ATOM     44  O   UNL     1      -1.748  11.548  12.541  0.00  0.00    -0.150 OA
ATOM     45  O   UNL     1      -3.732  12.911  11.839  0.00  0.00    -0.150 OA
BRANCH  43  46
ATOM     46  N   UNL     1      -1.923  13.882  13.403  0.00  0.00    -0.194 N 
ATOM     47  H   UNL     1      -1.148  13.524  13.956  0.00  0.00    +0.176 HD
ATOM     48  C   UNL     1      -1.518  14.728  12.350  0.00  0.00    +0.177 A 
ATOM     49  S   UNL     1       0.052  14.679  11.679  0.00  0.00    -0.059 S 
ATOM     50  C   UNL     1      -0.354  16.022  10.690  0.00  0.00    +0.068 A 
ATOM     51  C   UNL     1      -1.626  16.454  11.002  0.00  0.00    +0.120 A 
ATOM     52  N   UNL     1      -2.305  15.689  11.933  0.00  0.00    -0.232 NA
ENDBRANCH  43  46
ENDBRANCH  40  43
ENDBRANCH  35  37
ENDBRANCH  31  33
ENDBRANCH  30  31
ENDBRANCH   1  30
TORSDOF 16
