REMARK VINA RESULT:    -4.826      1.481      1.959
REMARK INTER + INTRA:         -11.447
REMARK INTER:                  -8.032
REMARK INTRA:                  -3.415
REMARK UNBOUND:                -3.093
REMARK  Name = lig_assembled_80.pdb
REMARK  16 active torsions:
REMARK  status: ('A' for Active; 'I' for Inactive)
REMARK    1  A    between atoms: _2  and  _10
REMARK    2  A    between atoms: _5  and  _24
REMARK    3  A    between atoms: _7  and  _8
REMARK    4  A    between atoms: _7  and  _24
REMARK    5  A    between atoms: _20  and  _40
REMARK    6  A    between atoms: _22  and  _28
REMARK    7  A    between atoms: _23  and  _27
REMARK    8  A    between atoms: _27  and  _28
REMARK    9  A    between atoms: _30  and  _31
REMARK   10  A    between atoms: _32  and  _33
REMARK   11  A    between atoms: _34  and  _36
REMARK   12  A    between atoms: _36  and  _37
REMARK   13  A    between atoms: _36  and  _38
REMARK   14  A    between atoms: _38  and  _39
REMARK   15  A    between atoms: _38  and  _40
REMARK   16  A    between atoms: _41  and  _43
REMARK                            x       y       z     vdW  Elec       q    Type
REMARK                         _______ _______ _______ _____ _____    ______ ____
ROOT
ATOM      1  C   UNL     1      -5.206   7.316  24.484  0.00  0.00    +0.141 C 
ENDROOT
BRANCH   1   4
ATOM      2  C   UNL     1      -3.012   6.624  25.385  0.00  0.00    +0.401 C 
ATOM      3  O   UNL     1      -3.009   5.538  24.801  0.00  0.00    -0.226 OA
ATOM      4  N   UNL     1      -4.002   7.514  25.299  0.00  0.00    -0.279 N 
ATOM      5  H   UNL     1      -3.917   8.373  25.824  0.00  0.00    +0.152 HD
BRANCH   2   6
ATOM      6  O   UNL     1      -1.900   6.969  26.215  0.00  0.00    -0.444 OA
BRANCH   6   7
ATOM      7  C   UNL     1      -1.943   6.196  27.418  0.00  0.00    +0.292 C 
BRANCH   7   9
ATOM      8  N   UNL     1      -3.475   6.217  29.348  0.00  0.00    -0.131 NA
ATOM      9  C   UNL     1      -2.698   6.915  28.464  0.00  0.00    +0.120 A 
ATOM     10  C   UNL     1      -2.770   8.260  28.751  0.00  0.00    +0.138 A 
ATOM     11  N   UNL     1      -3.659   8.323  29.791  0.00  0.00    -0.239 N 
ATOM     12  N   UNL     1      -4.051   7.086  30.168  0.00  0.00    -0.065 NA
BRANCH  11  13
ATOM     13  C   UNL     1      -4.069   9.472  30.607  0.00  0.00    +0.195 C 
ATOM     14  C   UNL     1      -2.819  10.228  31.036  0.00  0.00    +0.041 C 
ATOM     15  C   UNL     1      -3.140  11.247  32.110  0.00  0.00    +0.039 C 
ATOM     16  C   UNL     1      -3.611  12.519  31.479  0.00  0.00    -0.026 A 
ATOM     17  C   UNL     1      -4.794  12.599  30.740  0.00  0.00    +0.037 A 
ATOM     18  C   UNL     1      -5.232  13.853  30.283  0.00  0.00    +0.023 A 
ATOM     19  C   UNL     1      -4.451  14.995  30.451  0.00  0.00    +0.002 A 
ATOM     20  C   UNL     1      -3.240  14.904  31.120  0.00  0.00    +0.000 A 
ATOM     21  N   UNL     1      -5.575  11.508  30.324  0.00  0.00    -0.284 N 
ATOM     22  H   UNL     1      -6.418  11.759  29.816  0.00  0.00    +0.155 HD
ATOM     23  C   UNL     1      -2.835  13.681  31.653  0.00  0.00    +0.005 A 
ATOM     24  C   UNL     1      -5.193  10.255  29.939  0.00  0.00    +0.242 C 
ATOM     25  O   UNL     1      -5.908   9.743  29.068  0.00  0.00    -0.273 OA
ENDBRANCH  11  13
ENDBRANCH   7   9
ENDBRANCH   6   7
ENDBRANCH   2   6
ENDBRANCH   1   4
BRANCH   1  26
ATOM     26  C   UNL     1      -6.261   8.382  24.760  0.00  0.00    +0.163 C 
BRANCH  26  27
ATOM     27  O   UNL     1      -5.987   9.033  26.012  0.00  0.00    -0.388 OA
ATOM     28  H   UNL     1      -6.599   8.713  26.680  0.00  0.00    +0.210 HD
ENDBRANCH  26  27
BRANCH  26  29
ATOM     29  C   UNL     1      -6.279   9.399  23.605  0.00  0.00    +0.175 C 
BRANCH  29  30
ATOM     30  C   UNL     1      -5.098  10.377  23.678  0.00  0.00    +0.176 C 
ATOM     31  O   UNL     1      -5.373  11.331  24.741  0.00  0.00    -0.332 OA
ATOM     32  C   UNL     1      -4.299  12.287  25.029  0.00  0.00    +0.277 C 
ATOM     33  C   UNL     1      -3.887  13.042  23.741  0.00  0.00    +0.110 C 
ATOM     34  C   UNL     1      -3.614  12.070  22.574  0.00  0.00    +0.143 C 
ATOM     35  C   UNL     1      -4.794  11.120  22.364  0.00  0.00    +0.133 C 
BRANCH  35  36
ATOM     36  N   UNL     1      -4.488  10.144  21.307  0.00  0.00    -0.308 N 
ATOM     37  H   UNL     1      -3.714   9.512  21.458  0.00  0.00    +0.149 HD
ATOM     38  C   UNL     1      -5.166  10.037  20.161  0.00  0.00    +0.210 C 
ATOM     39  C   UNL     1      -6.324  11.030  19.950  0.00  0.00    +0.109 C 
ATOM     40  O   UNL     1      -4.896   9.199  19.300  0.00  0.00    -0.276 OA
ENDBRANCH  35  36
BRANCH  32  41
ATOM     41  C   UNL     1      -3.070  11.566  25.620  0.00  0.00    +0.414 C 
ATOM     42  O   UNL     1      -3.191  10.456  26.138  0.00  0.00    -0.240 OA
ATOM     43  O   UNL     1      -1.957  12.092  25.578  0.00  0.00    -0.240 OA
ENDBRANCH  32  41
BRANCH  34  44
ATOM     44  O   UNL     1      -3.387  12.810  21.374  0.00  0.00    -0.390 OA
ATOM     45  H   UNL     1      -2.774  12.330  20.812  0.00  0.00    +0.210 HD
ENDBRANCH  34  44
BRANCH  32  46
ATOM     46  O   UNL     1      -4.803  13.255  25.985  0.00  0.00    -0.343 OA
ATOM     47  C   UNL     1      -5.983  12.835  26.716  0.00  0.00    +0.198 C 
ENDBRANCH  32  46
ENDBRANCH  29  30
BRANCH  29  48
ATOM     48  O   UNL     1      -7.525  10.123  23.600  0.00  0.00    -0.387 OA
ATOM     49  H   UNL     1      -8.252   9.510  23.463  0.00  0.00    +0.210 HD
ENDBRANCH  29  48
ENDBRANCH  26  29
ENDBRANCH   1  26
TORSDOF 14
