REMARK VINA RESULT:    -3.932      5.525     10.094
REMARK INTER + INTRA:         -10.331
REMARK INTER:                  -6.887
REMARK INTRA:                  -3.443
REMARK UNBOUND:                -2.835
REMARK  Name = lig_assembled_13.pdb
REMARK  20 active torsions:
REMARK  status: ('A' for Active; 'I' for Inactive)
REMARK    1  A    between atoms: _2  and  _9
REMARK    2  A    between atoms: _4  and  _18
REMARK    3  A    between atoms: _5  and  _11
REMARK    4  A    between atoms: _6  and  _7
REMARK    5  A    between atoms: _6  and  _18
REMARK    6  A    between atoms: _9  and  _10
REMARK    7  A    between atoms: _10  and  _12
REMARK    8  A    between atoms: _11  and  _12
REMARK    9  A    between atoms: _14  and  _34
REMARK   10  A    between atoms: _16  and  _22
REMARK   11  A    between atoms: _17  and  _21
REMARK   12  A    between atoms: _21  and  _22
REMARK   13  A    between atoms: _24  and  _25
REMARK   14  A    between atoms: _26  and  _27
REMARK   15  A    between atoms: _28  and  _30
REMARK   16  A    between atoms: _30  and  _31
REMARK   17  A    between atoms: _30  and  _32
REMARK   18  A    between atoms: _32  and  _33
REMARK   19  A    between atoms: _32  and  _34
REMARK   20  A    between atoms: _35  and  _37
REMARK                            x       y       z     vdW  Elec       q    Type
REMARK                         _______ _______ _______ _____ _____    ______ ____
ROOT
ATOM      1  C   UNL     1      -2.767  11.684  24.753  0.00  0.00    +0.163 C 
ENDROOT
BRANCH   1   2
ATOM      2  O   UNL     1      -2.966  11.564  26.171  0.00  0.00    -0.388 OA
ATOM      3  H   UNL     1      -2.293  10.989  26.542  0.00  0.00    +0.210 HD
ENDBRANCH   1   2
BRANCH   1   4
ATOM      4  C   UNL     1      -3.757  10.796  23.981  0.00  0.00    +0.175 C 
BRANCH   4   5
ATOM      5  C   UNL     1      -4.173   9.557  24.788  0.00  0.00    +0.176 C 
ATOM      6  O   UNL     1      -2.966   8.942  25.316  0.00  0.00    -0.332 OA
ATOM      7  C   UNL     1      -3.176   7.797  26.207  0.00  0.00    +0.277 C 
ATOM      8  C   UNL     1      -4.049   6.724  25.513  0.00  0.00    +0.110 C 
ATOM      9  C   UNL     1      -5.330   7.336  24.907  0.00  0.00    +0.143 C 
ATOM     10  C   UNL     1      -4.995   8.521  24.000  0.00  0.00    +0.133 C 
BRANCH  10  11
ATOM     11  N   UNL     1      -6.227   9.150  23.498  0.00  0.00    -0.308 N 
ATOM     12  H   UNL     1      -6.828   9.611  24.168  0.00  0.00    +0.149 HD
ATOM     13  C   UNL     1      -6.604   9.151  22.217  0.00  0.00    +0.210 C 
ATOM     14  C   UNL     1      -5.681   8.417  21.226  0.00  0.00    +0.109 C 
ATOM     15  O   UNL     1      -7.635   9.698  21.823  0.00  0.00    -0.276 OA
ENDBRANCH  10  11
BRANCH   7  16
ATOM     16  C   UNL     1      -3.853   8.243  27.520  0.00  0.00    +0.414 C 
ATOM     17  O   UNL     1      -4.734   7.551  28.029  0.00  0.00    -0.240 OA
ATOM     18  O   UNL     1      -3.519   9.293  28.070  0.00  0.00    -0.240 OA
ENDBRANCH   7  16
BRANCH   7  19
ATOM     19  O   UNL     1      -1.880   7.213  26.500  0.00  0.00    -0.343 OA
ATOM     20  C   UNL     1      -1.915   5.825  26.920  0.00  0.00    +0.198 C 
ENDBRANCH   7  19
BRANCH   9  21
ATOM     21  O   UNL     1      -6.027   6.346  24.151  0.00  0.00    -0.390 OA
ATOM     22  H   UNL     1      -5.397   5.718  23.788  0.00  0.00    +0.210 HD
ENDBRANCH   9  21
ENDBRANCH   4   5
BRANCH   4  23
ATOM     23  O   UNL     1      -3.186  10.397  22.718  0.00  0.00    -0.387 OA
ATOM     24  H   UNL     1      -3.686   9.660  22.359  0.00  0.00    +0.210 HD
ENDBRANCH   4  23
ENDBRANCH   1   4
BRANCH   1  25
ATOM     25  C   UNL     1      -2.943  13.137  24.322  0.00  0.00    +0.141 C 
BRANCH  25  28
ATOM     26  C   UNL     1      -4.245  14.274  22.556  0.00  0.00    +0.401 C 
ATOM     27  O   UNL     1      -3.372  15.114  22.324  0.00  0.00    -0.226 OA
ATOM     28  N   UNL     1      -4.131  13.317  23.478  0.00  0.00    -0.279 N 
ATOM     29  H   UNL     1      -4.905  12.680  23.602  0.00  0.00    +0.152 HD
BRANCH  26  30
ATOM     30  O   UNL     1      -5.463  14.312  21.808  0.00  0.00    -0.444 OA
BRANCH  30  31
ATOM     31  C   UNL     1      -6.047  13.007  21.781  0.00  0.00    +0.292 C 
BRANCH  31  33
ATOM     32  N   UNL     1      -4.398  11.680  20.498  0.00  0.00    -0.131 NA
ATOM     33  C   UNL     1      -5.626  12.280  20.570  0.00  0.00    +0.120 A 
ATOM     34  C   UNL     1      -6.296  12.079  19.387  0.00  0.00    +0.137 A 
ATOM     35  N   UNL     1      -5.397  11.409  18.610  0.00  0.00    -0.241 N 
ATOM     36  N   UNL     1      -4.277  11.128  19.296  0.00  0.00    -0.065 NA
BRANCH  35  37
ATOM     37  C   UNL     1      -5.569  10.917  17.261  0.00  0.00    +0.265 C 
BRANCH  37  38
ATOM     38  C   UNL     1      -5.303   9.443  17.161  0.00  0.00    +0.329 C 
ATOM     39  O   UNL     1      -5.948   8.549  17.689  0.00  0.00    -0.249 OA
BRANCH  38  40
ATOM     40  O   UNL     1      -4.144   9.248  16.462  0.00  0.00    -0.464 OA
BRANCH  40  41
ATOM     41  C   UNL     1      -3.755  10.342  15.617  0.00  0.00    +0.229 C 
ATOM     42  C   UNL     1      -3.567   9.800  14.211  0.00  0.00    +0.048 C 
ENDBRANCH  40  41
ENDBRANCH  38  40
ENDBRANCH  37  38
ENDBRANCH  35  37
ENDBRANCH  31  33
ENDBRANCH  30  31
ENDBRANCH  26  30
ENDBRANCH  25  28
ENDBRANCH   1  25
TORSDOF 17
