REMARK VINA RESULT:    -3.798      2.912      5.384
REMARK INTER + INTRA:         -10.908
REMARK INTER:                  -7.018
REMARK INTRA:                  -3.890
REMARK UNBOUND:                -3.890
REMARK  Name = lig_assembled_66.pdb
REMARK  18 active torsions:
REMARK  status: ('A' for Active; 'I' for Inactive)
REMARK    1  A    between atoms: _2  and  _10
REMARK    2  A    between atoms: _5  and  _21
REMARK    3  A    between atoms: _7  and  _8
REMARK    4  A    between atoms: _7  and  _21
REMARK    5  A    between atoms: _10  and  _11
REMARK    6  A    between atoms: _15  and  _16
REMARK    7  A    between atoms: _17  and  _37
REMARK    8  A    between atoms: _19  and  _25
REMARK    9  A    between atoms: _20  and  _24
REMARK   10  A    between atoms: _24  and  _25
REMARK   11  A    between atoms: _27  and  _28
REMARK   12  A    between atoms: _29  and  _30
REMARK   13  A    between atoms: _31  and  _33
REMARK   14  A    between atoms: _33  and  _34
REMARK   15  A    between atoms: _33  and  _35
REMARK   16  A    between atoms: _35  and  _36
REMARK   17  A    between atoms: _35  and  _37
REMARK   18  A    between atoms: _38  and  _40
REMARK                            x       y       z     vdW  Elec       q    Type
REMARK                         _______ _______ _______ _____ _____    ______ ____
ROOT
ATOM      1  C   UNL     1      -7.469  13.474  25.691  0.00  0.00    +0.163 C 
ENDROOT
BRANCH   1   2
ATOM      2  O   UNL     1      -6.309  14.144  25.171  0.00  0.00    -0.388 OA
ATOM      3  H   UNL     1      -5.934  14.709  25.851  0.00  0.00    +0.210 HD
ENDBRANCH   1   2
BRANCH   1   4
ATOM      4  C   UNL     1      -7.075  12.181  26.426  0.00  0.00    +0.175 C 
BRANCH   4   5
ATOM      5  C   UNL     1      -5.564  11.913  26.353  0.00  0.00    +0.176 C 
ATOM      6  O   UNL     1      -5.272  11.351  25.044  0.00  0.00    -0.332 OA
ATOM      7  C   UNL     1      -3.853  11.127  24.753  0.00  0.00    +0.277 C 
ATOM      8  C   UNL     1      -3.206  10.252  25.854  0.00  0.00    +0.110 C 
ATOM      9  C   UNL     1      -3.516  10.792  27.266  0.00  0.00    +0.143 C 
ATOM     10  C   UNL     1      -5.020  10.990  27.460  0.00  0.00    +0.133 C 
BRANCH  10  11
ATOM     11  N   UNL     1      -5.296  11.586  28.776  0.00  0.00    -0.308 N 
ATOM     12  H   UNL     1      -5.005  12.541  28.932  0.00  0.00    +0.149 HD
ATOM     13  C   UNL     1      -5.905  10.948  29.779  0.00  0.00    +0.210 C 
ATOM     14  C   UNL     1      -6.313   9.485  29.518  0.00  0.00    +0.109 C 
ATOM     15  O   UNL     1      -6.136  11.477  30.866  0.00  0.00    -0.276 OA
ENDBRANCH  10  11
BRANCH   7  16
ATOM     16  C   UNL     1      -3.097  12.469  24.651  0.00  0.00    +0.414 C 
ATOM     17  O   UNL     1      -3.641  13.450  24.146  0.00  0.00    -0.240 OA
ATOM     18  O   UNL     1      -1.944  12.569  25.073  0.00  0.00    -0.240 OA
ENDBRANCH   7  16
BRANCH   7  19
ATOM     19  O   UNL     1      -3.760  10.418  23.491  0.00  0.00    -0.343 OA
ATOM     20  C   UNL     1      -5.032  10.035  22.909  0.00  0.00    +0.198 C 
ENDBRANCH   7  19
BRANCH   9  21
ATOM     21  O   UNL     1      -3.032   9.875  28.249  0.00  0.00    -0.390 OA
ATOM     22  H   UNL     1      -3.762   9.579  28.798  0.00  0.00    +0.210 HD
ENDBRANCH   9  21
ENDBRANCH   4   5
BRANCH   4  23
ATOM     23  O   UNL     1      -7.804  11.061  25.886  0.00  0.00    -0.387 OA
ATOM     24  H   UNL     1      -8.743  11.261  25.885  0.00  0.00    +0.210 HD
ENDBRANCH   4  23
ENDBRANCH   1   4
BRANCH   1  25
ATOM     25  C   UNL     1      -8.219  14.395  26.647  0.00  0.00    +0.141 C 
BRANCH  25  28
ATOM     26  C   UNL     1      -6.943  15.052  28.658  0.00  0.00    +0.401 C 
ATOM     27  O   UNL     1      -7.342  14.103  29.337  0.00  0.00    -0.226 OA
ATOM     28  N   UNL     1      -7.306  15.269  27.394  0.00  0.00    -0.279 N 
ATOM     29  H   UNL     1      -6.933  16.081  26.923  0.00  0.00    +0.152 HD
BRANCH  26  30
ATOM     30  O   UNL     1      -6.037  15.992  29.243  0.00  0.00    -0.444 OA
BRANCH  30  31
ATOM     31  C   UNL     1      -6.075  15.868  30.667  0.00  0.00    +0.292 C 
BRANCH  31  33
ATOM     32  N   UNL     1      -4.049  16.249  32.043  0.00  0.00    -0.131 NA
ATOM     33  C   UNL     1      -4.755  15.451  31.182  0.00  0.00    +0.120 A 
ATOM     34  C   UNL     1      -4.053  14.287  30.969  0.00  0.00    +0.137 A 
ATOM     35  N   UNL     1      -2.956  14.411  31.773  0.00  0.00    -0.247 N 
ATOM     36  N   UNL     1      -2.948  15.601  32.402  0.00  0.00    -0.065 NA
BRANCH  35  37
ATOM     37  C   UNL     1      -2.037  13.363  32.178  0.00  0.00    +0.180 C 
BRANCH  37  38
ATOM     38  C   UNL     1      -2.726  12.070  32.533  0.00  0.00    -0.025 A 
ATOM     39  C   UNL     1      -3.577  12.002  33.646  0.00  0.00    +0.005 A 
ATOM     40  C   UNL     1      -4.283  10.831  33.932  0.00  0.00    +0.002 A 
ATOM     41  C   UNL     1      -4.132   9.707  33.122  0.00  0.00    +0.019 A 
ATOM     42  C   UNL     1      -3.260   9.746  32.030  0.00  0.00    +0.052 A 
ATOM     43  C   UNL     1      -2.561  10.925  31.736  0.00  0.00    +0.024 A 
BRANCH  42  44
ATOM     44  C   UNL     1      -3.090   8.586  31.204  0.00  0.00    +0.099 C 
ATOM     45  N   UNL     1      -2.959   7.650  30.530  0.00  0.00    -0.191 NA
ENDBRANCH  42  44
ENDBRANCH  37  38
ENDBRANCH  35  37
ENDBRANCH  31  33
ENDBRANCH  30  31
ENDBRANCH  26  30
ENDBRANCH  25  28
ENDBRANCH   1  25
TORSDOF 16
