REMARK VINA RESULT:    -3.812      5.888     11.578
REMARK INTER + INTRA:         -10.653
REMARK INTER:                  -8.327
REMARK INTRA:                  -2.326
REMARK UNBOUND:                -3.721
REMARK  Name = lig_assembled_35.pdb
REMARK  19 active torsions:
REMARK  status: ('A' for Active; 'I' for Inactive)
REMARK    1  A    between atoms: _2  and  _9
REMARK    2  A    between atoms: _4  and  _17
REMARK    3  A    between atoms: _5  and  _9
REMARK    4  A    between atoms: _5  and  _11
REMARK    5  A    between atoms: _6  and  _7
REMARK    6  A    between atoms: _6  and  _17
REMARK    7  A    between atoms: _9  and  _10
REMARK    8  A    between atoms: _13  and  _33
REMARK    9  A    between atoms: _15  and  _21
REMARK   10  A    between atoms: _16  and  _20
REMARK   11  A    between atoms: _20  and  _21
REMARK   12  A    between atoms: _23  and  _24
REMARK   13  A    between atoms: _25  and  _26
REMARK   14  A    between atoms: _27  and  _29
REMARK   15  A    between atoms: _29  and  _30
REMARK   16  A    between atoms: _29  and  _31
REMARK   17  A    between atoms: _31  and  _32
REMARK   18  A    between atoms: _31  and  _33
REMARK   19  A    between atoms: _34  and  _36
REMARK                            x       y       z     vdW  Elec       q    Type
REMARK                         _______ _______ _______ _____ _____    ______ ____
ROOT
ATOM      1  C   UNL     1      -5.923  10.968  16.326  0.00  0.00    +0.163 C 
ENDROOT
BRANCH   1   2
ATOM      2  O   UNL     1      -5.097  12.109  16.041  0.00  0.00    -0.388 OA
ATOM      3  H   UNL     1      -5.286  12.429  15.156  0.00  0.00    +0.210 HD
ENDBRANCH   1   2
BRANCH   1   4
ATOM      4  C   UNL     1      -5.154   9.658  16.081  0.00  0.00    +0.175 C 
BRANCH   4   5
ATOM      5  C   UNL     1      -4.140   9.789  14.935  0.00  0.00    +0.176 C 
ATOM      6  O   UNL     1      -4.810  10.431  13.816  0.00  0.00    -0.332 OA
ATOM      7  C   UNL     1      -3.962  10.736  12.660  0.00  0.00    +0.277 C 
ATOM      8  C   UNL     1      -3.234   9.460  12.171  0.00  0.00    +0.110 C 
ATOM      9  C   UNL     1      -2.532   8.725  13.332  0.00  0.00    +0.143 C 
ATOM     10  C   UNL     1      -3.506   8.461  14.482  0.00  0.00    +0.133 C 
BRANCH  10  11
ATOM     11  N   UNL     1      -2.806   7.838  15.617  0.00  0.00    -0.308 N 
ATOM     12  H   UNL     1      -2.107   8.386  16.098  0.00  0.00    +0.149 HD
ATOM     13  C   UNL     1      -3.034   6.596  16.052  0.00  0.00    +0.210 C 
ATOM     14  C   UNL     1      -4.087   5.777  15.281  0.00  0.00    +0.109 C 
ATOM     15  O   UNL     1      -2.443   6.105  17.014  0.00  0.00    -0.276 OA
ENDBRANCH  10  11
BRANCH   7  16
ATOM     16  C   UNL     1      -2.922  11.819  13.015  0.00  0.00    +0.414 C 
ATOM     17  O   UNL     1      -3.182  12.676  13.859  0.00  0.00    -0.240 OA
ATOM     18  O   UNL     1      -1.823  11.836  12.458  0.00  0.00    -0.240 OA
ENDBRANCH   7  16
BRANCH   7  19
ATOM     19  O   UNL     1      -4.817  11.213  11.589  0.00  0.00    -0.343 OA
ATOM     20  C   UNL     1      -6.138  11.641  12.005  0.00  0.00    +0.198 C 
ENDBRANCH   7  19
BRANCH   9  21
ATOM     21  O   UNL     1      -2.006   7.482  12.867  0.00  0.00    -0.390 OA
ATOM     22  H   UNL     1      -1.557   7.617  12.029  0.00  0.00    +0.210 HD
ENDBRANCH   9  21
ENDBRANCH   4   5
BRANCH   4  23
ATOM     23  O   UNL     1      -6.077   8.585  15.808  0.00  0.00    -0.387 OA
ATOM     24  H   UNL     1      -6.173   8.479  14.859  0.00  0.00    +0.210 HD
ENDBRANCH   4  23
ENDBRANCH   1   4
BRANCH   1  25
ATOM     25  C   UNL     1      -6.399  11.017  17.774  0.00  0.00    +0.141 C 
BRANCH  25  28
ATOM     26  C   UNL     1      -4.671  10.734  19.518  0.00  0.00    +0.401 C 
ATOM     27  O   UNL     1      -4.853   9.520  19.633  0.00  0.00    -0.226 OA
ATOM     28  N   UNL     1      -5.354  11.513  18.677  0.00  0.00    -0.279 N 
ATOM     29  H   UNL     1      -5.139  12.501  18.661  0.00  0.00    +0.152 HD
BRANCH  26  30
ATOM     30  O   UNL     1      -3.677  11.368  20.326  0.00  0.00    -0.444 OA
BRANCH  30  31
ATOM     31  C   UNL     1      -4.311  12.073  21.398  0.00  0.00    +0.292 C 
BRANCH  31  33
ATOM     32  N   UNL     1      -3.305  10.285  22.783  0.00  0.00    -0.131 NA
ATOM     33  C   UNL     1      -3.871  11.529  22.698  0.00  0.00    +0.120 A 
ATOM     34  C   UNL     1      -3.932  12.083  23.957  0.00  0.00    +0.138 A 
ATOM     35  N   UNL     1      -3.373  11.134  24.762  0.00  0.00    -0.238 N 
ATOM     36  N   UNL     1      -3.018  10.048  24.055  0.00  0.00    -0.065 NA
BRANCH  35  37
ATOM     37  C   UNL     1      -3.160  11.145  26.197  0.00  0.00    +0.214 C 
ATOM     38  C   UNL     1      -4.463  11.427  26.940  0.00  0.00    +0.045 C 
BRANCH  37  39
ATOM     39  C   UNL     1      -2.499   9.866  26.669  0.00  0.00    +0.329 C 
ATOM     40  O   UNL     1      -3.087   8.948  27.225  0.00  0.00    -0.249 OA
BRANCH  39  41
ATOM     41  O   UNL     1      -1.161   9.815  26.452  0.00  0.00    -0.479 OA
ATOM     42  H   UNL     1      -0.683   9.096  26.914  0.00  0.00    +0.295 HD
ENDBRANCH  39  41
ENDBRANCH  37  39
ENDBRANCH  35  37
ENDBRANCH  31  33
ENDBRANCH  30  31
ENDBRANCH  26  30
ENDBRANCH  25  28
ENDBRANCH   1  25
TORSDOF 16
