REMARK VINA RESULT:    -4.935      2.665      9.184
REMARK INTER + INTRA:         -13.772
REMARK INTER:                  -9.767
REMARK INTRA:                  -4.005
REMARK UNBOUND:                -3.788
REMARK  Name = lig_assembled_81.pdb
REMARK  22 active torsions:
REMARK  status: ('A' for Active; 'I' for Inactive)
REMARK    1  A    between atoms: _2  and  _12
REMARK    2  A    between atoms: _7  and  _30
REMARK    3  A    between atoms: _8  and  _24
REMARK    4  A    between atoms: _9  and  _10
REMARK    5  A    between atoms: _9  and  _30
REMARK    6  A    between atoms: _14  and  _15
REMARK    7  A    between atoms: _21  and  _22
REMARK    8  A    between atoms: _22  and  _23
REMARK    9  A    between atoms: _23  and  _25
REMARK   10  A    between atoms: _24  and  _25
REMARK   11  A    between atoms: _26  and  _46
REMARK   12  A    between atoms: _28  and  _34
REMARK   13  A    between atoms: _29  and  _33
REMARK   14  A    between atoms: _33  and  _34
REMARK   15  A    between atoms: _36  and  _37
REMARK   16  A    between atoms: _38  and  _39
REMARK   17  A    between atoms: _40  and  _42
REMARK   18  A    between atoms: _42  and  _43
REMARK   19  A    between atoms: _42  and  _44
REMARK   20  A    between atoms: _44  and  _45
REMARK   21  A    between atoms: _44  and  _46
REMARK   22  A    between atoms: _47  and  _49
REMARK                            x       y       z     vdW  Elec       q    Type
REMARK                         _______ _______ _______ _____ _____    ______ ____
ROOT
ATOM      1  C   UNL     1      -2.090   8.066  28.478  0.00  0.00    +0.401 C 
ATOM      2  O   UNL     1      -1.794   6.876  28.604  0.00  0.00    -0.226 OA
ATOM      3  N   UNL     1      -2.601   8.815  29.456  0.00  0.00    -0.279 N 
ATOM      4  H   UNL     1      -2.802   9.786  29.258  0.00  0.00    +0.152 HD
ENDROOT
BRANCH   1   5
ATOM      5  O   UNL     1      -1.875   8.705  27.217  0.00  0.00    -0.444 OA
BRANCH   5   6
ATOM      6  C   UNL     1      -2.273  10.076  27.302  0.00  0.00    +0.289 C 
BRANCH   6   8
ATOM      7  N   UNL     1      -3.568  11.716  26.019  0.00  0.00    -0.130 NA
ATOM      8  C   UNL     1      -3.139  10.431  26.159  0.00  0.00    +0.100 C 
ATOM      9  C   UNL     1      -3.674   9.672  25.135  0.00  0.00    +0.124 C 
ATOM     10  N   UNL     1      -4.314  10.591  24.314  0.00  0.00    -0.187 N 
ATOM     11  N   UNL     1      -4.384  11.761  24.980  0.00  0.00    -0.010 NA
BRANCH  10  12
ATOM     12  C   UNL     1      -4.995  10.346  23.074  0.00  0.00    +0.150 A 
ATOM     13  C   UNL     1      -4.510  10.681  21.786  0.00  0.00    +0.022 A 
ATOM     14  C   UNL     1      -5.435  10.393  20.747  0.00  0.00    +0.081 A 
ATOM     15  N   UNL     1      -6.681   9.915  21.012  0.00  0.00    -0.214 NA
ATOM     16  C   UNL     1      -7.029   9.666  22.263  0.00  0.00    +0.215 A 
ATOM     17  N   UNL     1      -8.321   9.270  22.515  0.00  0.00    -0.327 N 
ATOM     18  H   UNL     1      -8.749   8.871  21.694  0.00  0.00    +0.145 HD
ATOM     19  H   UNL     1      -8.398   8.781  23.394  0.00  0.00    +0.145 HD
ATOM     20  N   UNL     1      -6.210   9.772  23.291  0.00  0.00    -0.198 NA
BRANCH  14  21
ATOM     21  C   UNL     1      -5.247  10.571  19.257  0.00  0.00    +0.001 A 
ATOM     22  C   UNL     1      -5.198  11.809  18.591  0.00  0.00    +0.010 A 
ATOM     23  C   UNL     1      -5.007  11.910  17.202  0.00  0.00    +0.001 A 
ATOM     24  C   UNL     1      -4.798  10.780  16.435  0.00  0.00    +0.000 A 
ATOM     25  C   UNL     1      -4.782   9.534  17.058  0.00  0.00    +0.001 A 
ATOM     26  C   UNL     1      -5.015   9.440  18.438  0.00  0.00    +0.010 A 
ENDBRANCH  14  21
BRANCH  13  27
ATOM     27  C   UNL     1      -3.121  11.191  21.389  0.00  0.00    +0.069 C 
BRANCH  27  28
ATOM     28  C   UNL     1      -2.812  12.675  21.348  0.00  0.00    +0.164 C 
BRANCH  28  29
ATOM     29  O   UNL     1      -3.939  13.560  21.361  0.00  0.00    -0.380 OA
BRANCH  29  30
ATOM     30  C   UNL     1      -3.754  14.433  22.493  0.00  0.00    +0.156 C 
ATOM     31  C   UNL     1      -4.530  15.720  22.339  0.00  0.00    +0.034 C 
ENDBRANCH  29  30
ENDBRANCH  28  29
ENDBRANCH  27  28
ENDBRANCH  13  27
ENDBRANCH  10  12
ENDBRANCH   6   8
ENDBRANCH   5   6
ENDBRANCH   1   5
BRANCH   3  32
ATOM     32  C   UNL     1      -2.889   8.309  30.804  0.00  0.00    +0.141 C 
BRANCH  32  33
ATOM     33  C   UNL     1      -3.429   9.403  31.719  0.00  0.00    +0.163 C 
BRANCH  33  34
ATOM     34  O   UNL     1      -2.417  10.398  31.946  0.00  0.00    -0.388 OA
ATOM     35  H   UNL     1      -2.078  10.311  32.841  0.00  0.00    +0.210 HD
ENDBRANCH  33  34
BRANCH  33  36
ATOM     36  C   UNL     1      -4.683  10.030  31.086  0.00  0.00    +0.175 C 
BRANCH  36  37
ATOM     37  C   UNL     1      -4.515  11.536  30.839  0.00  0.00    +0.176 C 
ATOM     38  O   UNL     1      -4.498  12.202  32.131  0.00  0.00    -0.332 OA
ATOM     39  C   UNL     1      -4.238  13.644  32.098  0.00  0.00    +0.277 C 
ATOM     40  C   UNL     1      -5.242  14.354  31.157  0.00  0.00    +0.110 C 
ATOM     41  C   UNL     1      -5.318  13.662  29.780  0.00  0.00    +0.143 C 
ATOM     42  C   UNL     1      -5.590  12.165  29.932  0.00  0.00    +0.133 C 
BRANCH  42  43
ATOM     43  N   UNL     1      -5.574  11.502  28.619  0.00  0.00    -0.308 N 
ATOM     44  H   UNL     1      -4.727  11.561  28.071  0.00  0.00    +0.149 HD
ATOM     45  C   UNL     1      -6.605  10.828  28.103  0.00  0.00    +0.210 C 
ATOM     46  C   UNL     1      -7.890  10.778  28.952  0.00  0.00    +0.109 C 
ATOM     47  O   UNL     1      -6.558  10.270  27.006  0.00  0.00    -0.276 OA
ENDBRANCH  42  43
BRANCH  39  48
ATOM     48  C   UNL     1      -2.797  13.930  31.624  0.00  0.00    +0.414 C 
ATOM     49  O   UNL     1      -1.861  13.249  32.042  0.00  0.00    -0.240 OA
ATOM     50  O   UNL     1      -2.572  14.839  30.824  0.00  0.00    -0.240 OA
ENDBRANCH  39  48
BRANCH  39  51
ATOM     51  O   UNL     1      -4.422  14.165  33.440  0.00  0.00    -0.343 OA
ATOM     52  C   UNL     1      -5.685  13.818  34.062  0.00  0.00    +0.198 C 
ENDBRANCH  39  51
BRANCH  41  53
ATOM     53  O   UNL     1      -6.360  14.252  29.001  0.00  0.00    -0.390 OA
ATOM     54  H   UNL     1      -7.170  13.750  29.117  0.00  0.00    +0.210 HD
ENDBRANCH  41  53
ENDBRANCH  36  37
BRANCH  36  55
ATOM     55  O   UNL     1      -5.834   9.789  31.920  0.00  0.00    -0.387 OA
ATOM     56  H   UNL     1      -5.890   8.853  32.126  0.00  0.00    +0.210 HD
ENDBRANCH  36  55
ENDBRANCH  33  36
ENDBRANCH  32  33
ENDBRANCH   3  32
TORSDOF 19
