REMARK VINA RESULT:    -4.649      4.374      8.782
REMARK INTER + INTRA:         -11.343
REMARK INTER:                  -7.784
REMARK INTRA:                  -3.559
REMARK UNBOUND:                -2.890
REMARK  Name = lig_assembled_73.pdb
REMARK  18 active torsions:
REMARK  status: ('A' for Active; 'I' for Inactive)
REMARK    1  A    between atoms: _2  and  _10
REMARK    2  A    between atoms: _3  and  _14
REMARK    3  A    between atoms: _5  and  _22
REMARK    4  A    between atoms: _7  and  _8
REMARK    5  A    between atoms: _7  and  _22
REMARK    6  A    between atoms: _13  and  _16
REMARK    7  A    between atoms: _18  and  _38
REMARK    8  A    between atoms: _20  and  _26
REMARK    9  A    between atoms: _21  and  _25
REMARK   10  A    between atoms: _25  and  _26
REMARK   11  A    between atoms: _28  and  _29
REMARK   12  A    between atoms: _30  and  _31
REMARK   13  A    between atoms: _32  and  _34
REMARK   14  A    between atoms: _34  and  _35
REMARK   15  A    between atoms: _34  and  _36
REMARK   16  A    between atoms: _36  and  _37
REMARK   17  A    between atoms: _36  and  _38
REMARK   18  A    between atoms: _39  and  _41
REMARK                            x       y       z     vdW  Elec       q    Type
REMARK                         _______ _______ _______ _____ _____    ______ ____
ROOT
ATOM      1  C   UNL     1      -2.913  11.743  24.777  0.00  0.00    +0.163 C 
ENDROOT
BRANCH   1   2
ATOM      2  O   UNL     1      -2.978  11.464  26.185  0.00  0.00    -0.388 OA
ATOM      3  H   UNL     1      -2.099  11.260  26.512  0.00  0.00    +0.210 HD
ENDBRANCH   1   2
BRANCH   1   4
ATOM      4  C   UNL     1      -3.769  10.745  23.978  0.00  0.00    +0.175 C 
BRANCH   4   5
ATOM      5  C   UNL     1      -4.151   9.514  24.813  0.00  0.00    +0.176 C 
ATOM      6  O   UNL     1      -2.923   8.870  25.249  0.00  0.00    -0.332 OA
ATOM      7  C   UNL     1      -3.091   7.728  26.152  0.00  0.00    +0.277 C 
ATOM      8  C   UNL     1      -4.039   6.676  25.524  0.00  0.00    +0.110 C 
ATOM      9  C   UNL     1      -5.347   7.320  25.017  0.00  0.00    +0.143 C 
ATOM     10  C   UNL     1      -5.055   8.499  24.088  0.00  0.00    +0.133 C 
BRANCH  10  11
ATOM     11  N   UNL     1      -6.306   9.157  23.682  0.00  0.00    -0.308 N 
ATOM     12  H   UNL     1      -6.834   9.645  24.391  0.00  0.00    +0.149 HD
ATOM     13  C   UNL     1      -6.790   9.151  22.437  0.00  0.00    +0.210 C 
ATOM     14  C   UNL     1      -5.975   8.376  21.384  0.00  0.00    +0.109 C 
ATOM     15  O   UNL     1      -7.833   9.724  22.122  0.00  0.00    -0.276 OA
ENDBRANCH  10  11
BRANCH   7  16
ATOM     16  C   UNL     1      -3.657   8.185  27.512  0.00  0.00    +0.414 C 
ATOM     17  O   UNL     1      -3.305   9.257  28.002  0.00  0.00    -0.240 OA
ATOM     18  O   UNL     1      -4.466   7.482  28.120  0.00  0.00    -0.240 OA
ENDBRANCH   7  16
BRANCH   9  19
ATOM     19  O   UNL     1      -6.121   6.347  24.314  0.00  0.00    -0.390 OA
ATOM     20  H   UNL     1      -6.505   5.729  24.940  0.00  0.00    +0.210 HD
ENDBRANCH   9  19
BRANCH   7  21
ATOM     21  O   UNL     1      -1.791   7.113  26.346  0.00  0.00    -0.343 OA
ATOM     22  C   UNL     1      -1.815   5.675  26.532  0.00  0.00    +0.198 C 
ENDBRANCH   7  21
ENDBRANCH   4   5
BRANCH   4  23
ATOM     23  O   UNL     1      -3.073  10.338  22.783  0.00  0.00    -0.387 OA
ATOM     24  H   UNL     1      -2.143  10.209  22.983  0.00  0.00    +0.210 HD
ENDBRANCH   4  23
ENDBRANCH   1   4
BRANCH   1  25
ATOM     25  C   UNL     1      -3.398  13.163  24.503  0.00  0.00    +0.141 C 
BRANCH  25  28
ATOM     26  C   UNL     1      -5.032  14.186  22.957  0.00  0.00    +0.401 C 
ATOM     27  O   UNL     1      -5.397  15.046  23.762  0.00  0.00    -0.226 OA
ATOM     28  N   UNL     1      -4.107  13.262  23.222  0.00  0.00    -0.279 N 
ATOM     29  H   UNL     1      -3.882  12.592  22.499  0.00  0.00    +0.152 HD
BRANCH  26  30
ATOM     30  O   UNL     1      -5.626  14.155  21.657  0.00  0.00    -0.444 OA
BRANCH  30  31
ATOM     31  C   UNL     1      -6.337  12.926  21.485  0.00  0.00    +0.292 C 
BRANCH  31  33
ATOM     32  N   UNL     1      -4.488  11.497  20.670  0.00  0.00    -0.131 NA
ATOM     33  C   UNL     1      -5.692  12.101  20.447  0.00  0.00    +0.121 A 
ATOM     34  C   UNL     1      -6.118  11.796  19.175  0.00  0.00    +0.143 A 
ATOM     35  N   UNL     1      -5.135  10.987  18.655  0.00  0.00    -0.220 N 
ATOM     36  N   UNL     1      -4.157  10.822  19.578  0.00  0.00    -0.060 NA
BRANCH  35  37
ATOM     37  C   UNL     1      -5.064  10.384  17.373  0.00  0.00    +0.074 A 
ATOM     38  C   UNL     1      -6.008   9.406  17.009  0.00  0.00    +0.032 A 
ATOM     39  C   UNL     1      -5.953   8.790  15.751  0.00  0.00    +0.054 A 
ATOM     40  C   UNL     1      -4.953   9.142  14.846  0.00  0.00    +0.195 A 
ATOM     41  C   UNL     1      -4.022  10.113  15.212  0.00  0.00    +0.316 A 
ATOM     42  C   UNL     1      -4.065  10.746  16.462  0.00  0.00    +0.116 A 
BRANCH  41  43
ATOM     43  N   UNL     1      -2.964  10.494  14.297  0.00  0.00    +0.083 N 
ATOM     44  O   UNL     1      -2.244   9.592  13.847  0.00  0.00    +0.042 OA
ATOM     45  O   UNL     1      -2.805  11.708  14.107  0.00  0.00    -0.576 OA
ENDBRANCH  41  43
BRANCH  40  46
ATOM     46  O   UNL     1      -4.913   8.559  13.616  0.00  0.00    -0.501 OA
ATOM     47  H   UNL     1      -4.485   7.687  13.674  0.00  0.00    +0.292 HD
ENDBRANCH  40  46
ENDBRANCH  35  37
ENDBRANCH  31  33
ENDBRANCH  30  31
ENDBRANCH  26  30
ENDBRANCH  25  28
ENDBRANCH   1  25
TORSDOF 16
