REMARK VINA RESULT:    -4.402      4.995      9.861
REMARK INTER + INTRA:         -12.184
REMARK INTER:                  -8.779
REMARK INTRA:                  -3.405
REMARK UNBOUND:                -3.793
REMARK  Name = lig_assembled_21.pdb
REMARK  20 active torsions:
REMARK  status: ('A' for Active; 'I' for Inactive)
REMARK    1  A    between atoms: _2  and  _9
REMARK    2  A    between atoms: _4  and  _23
REMARK    3  A    between atoms: _6  and  _7
REMARK    4  A    between atoms: _6  and  _23
REMARK    5  A    between atoms: _9  and  _10
REMARK    6  A    between atoms: _11  and  _18
REMARK    7  A    between atoms: _12  and  _13
REMARK    8  A    between atoms: _12  and  _18
REMARK    9  A    between atoms: _19  and  _39
REMARK   10  A    between atoms: _21  and  _27
REMARK   11  A    between atoms: _22  and  _26
REMARK   12  A    between atoms: _26  and  _27
REMARK   13  A    between atoms: _29  and  _30
REMARK   14  A    between atoms: _31  and  _32
REMARK   15  A    between atoms: _33  and  _35
REMARK   16  A    between atoms: _35  and  _36
REMARK   17  A    between atoms: _35  and  _37
REMARK   18  A    between atoms: _37  and  _38
REMARK   19  A    between atoms: _37  and  _39
REMARK   20  A    between atoms: _40  and  _42
REMARK                            x       y       z     vdW  Elec       q    Type
REMARK                         _______ _______ _______ _____ _____    ______ ____
ROOT
ATOM      1  C   UNL     1      -5.172   7.333  23.706  0.00  0.00    +0.163 C 
ENDROOT
BRANCH   1   2
ATOM      2  O   UNL     1      -4.000   6.825  24.364  0.00  0.00    -0.388 OA
ATOM      3  H   UNL     1      -3.374   6.510  23.708  0.00  0.00    +0.210 HD
ENDBRANCH   1   2
BRANCH   1   4
ATOM      4  C   UNL     1      -4.954   8.781  23.235  0.00  0.00    +0.175 C 
BRANCH   4   5
ATOM      5  C   UNL     1      -3.932   9.525  24.107  0.00  0.00    +0.176 C 
ATOM      6  O   UNL     1      -4.332   9.371  25.496  0.00  0.00    -0.332 OA
ATOM      7  C   UNL     1      -3.409   9.931  26.488  0.00  0.00    +0.277 C 
ATOM      8  C   UNL     1      -3.130  11.423  26.186  0.00  0.00    +0.110 C 
ATOM      9  C   UNL     1      -2.731  11.641  24.711  0.00  0.00    +0.143 C 
ATOM     10  C   UNL     1      -3.759  11.017  23.767  0.00  0.00    +0.133 C 
BRANCH  10  11
ATOM     11  N   UNL     1      -3.323  11.154  22.368  0.00  0.00    -0.308 N 
ATOM     12  H   UNL     1      -2.490  10.659  22.082  0.00  0.00    +0.149 HD
ATOM     13  C   UNL     1      -3.957  11.891  21.451  0.00  0.00    +0.210 C 
ATOM     14  C   UNL     1      -5.209  12.654  21.925  0.00  0.00    +0.109 C 
ATOM     15  O   UNL     1      -3.578  11.976  20.283  0.00  0.00    -0.276 OA
ENDBRANCH  10  11
BRANCH   7  16
ATOM     16  C   UNL     1      -2.079   9.149  26.499  0.00  0.00    +0.414 C 
ATOM     17  O   UNL     1      -1.006   9.752  26.518  0.00  0.00    -0.240 OA
ATOM     18  O   UNL     1      -2.078   7.918  26.489  0.00  0.00    -0.240 OA
ENDBRANCH   7  16
BRANCH   9  19
ATOM     19  O   UNL     1      -2.631  13.040  24.440  0.00  0.00    -0.390 OA
ATOM     20  H   UNL     1      -1.728  13.331  24.584  0.00  0.00    +0.210 HD
ENDBRANCH   9  19
BRANCH   7  21
ATOM     21  O   UNL     1      -4.040   9.838  27.791  0.00  0.00    -0.343 OA
ATOM     22  C   UNL     1      -3.400  10.611  28.838  0.00  0.00    +0.198 C 
ENDBRANCH   7  21
ENDBRANCH   4   5
BRANCH   4  23
ATOM     23  O   UNL     1      -6.208   9.493  23.224  0.00  0.00    -0.387 OA
ATOM     24  H   UNL     1      -6.496   9.619  22.317  0.00  0.00    +0.210 HD
ENDBRANCH   4  23
ENDBRANCH   1   4
BRANCH   1  25
ATOM     25  C   UNL     1      -5.519   6.454  22.508  0.00  0.00    +0.141 C 
BRANCH  25  28
ATOM     26  C   UNL     1      -5.990   7.068  20.161  0.00  0.00    +0.401 C 
ATOM     27  O   UNL     1      -5.140   6.307  19.693  0.00  0.00    -0.226 OA
ATOM     28  N   UNL     1      -6.229   7.206  21.466  0.00  0.00    -0.279 N 
ATOM     29  H   UNL     1      -6.940   7.864  21.754  0.00  0.00    +0.152 HD
BRANCH  26  30
ATOM     30  O   UNL     1      -6.774   7.866  19.271  0.00  0.00    -0.444 OA
BRANCH  30  31
ATOM     31  C   UNL     1      -6.845   9.206  19.766  0.00  0.00    +0.292 C 
BRANCH  31  33
ATOM     32  N   UNL     1      -6.743  11.415  18.662  0.00  0.00    -0.131 NA
ATOM     33  C   UNL     1      -6.259  10.142  18.789  0.00  0.00    +0.120 A 
ATOM     34  C   UNL     1      -5.202   9.974  17.921  0.00  0.00    +0.137 A 
ATOM     35  N   UNL     1      -5.034  11.212  17.361  0.00  0.00    -0.247 N 
ATOM     36  N   UNL     1      -5.988  12.059  17.785  0.00  0.00    -0.065 NA
BRANCH  35  37
ATOM     37  C   UNL     1      -3.933  11.616  16.493  0.00  0.00    +0.184 C 
BRANCH  37  38
ATOM     38  C   UNL     1      -4.129  11.355  15.019  0.00  0.00    +0.016 A 
ATOM     39  C   UNL     1      -3.367  10.398  14.326  0.00  0.00    +0.137 A 
ATOM     40  C   UNL     1      -3.567  10.168  12.964  0.00  0.00    +0.047 A 
ATOM     41  C   UNL     1      -4.548  10.885  12.279  0.00  0.00    +0.004 A 
ATOM     42  C   UNL     1      -5.303  11.848  12.945  0.00  0.00    +0.001 A 
ATOM     43  C   UNL     1      -5.099  12.080  14.305  0.00  0.00    +0.009 A 
BRANCH  39  44
ATOM     44  O   UNL     1      -2.341   9.749  15.054  0.00  0.00    -0.426 OA
BRANCH  44  45
ATOM     45  C   UNL     1      -2.408   8.400  15.407  0.00  0.00    +0.309 C 
ATOM     46  O   UNL     1      -3.406   7.767  15.725  0.00  0.00    -0.251 OA
ATOM     47  C   UNL     1      -1.044   7.792  15.264  0.00  0.00    +0.136 C 
ENDBRANCH  44  45
ENDBRANCH  39  44
ENDBRANCH  37  38
ENDBRANCH  35  37
ENDBRANCH  31  33
ENDBRANCH  30  31
ENDBRANCH  26  30
ENDBRANCH  25  28
ENDBRANCH   1  25
TORSDOF 17
