REMARK VINA RESULT:    -3.965      2.442      5.683
REMARK INTER + INTRA:         -12.660
REMARK INTER:                  -8.828
REMARK INTRA:                  -3.832
REMARK UNBOUND:                -4.638
REMARK  Name = lig_assembled_11.pdb
REMARK  22 active torsions:
REMARK  status: ('A' for Active; 'I' for Inactive)
REMARK    1  A    between atoms: _2  and  _9
REMARK    2  A    between atoms: _4  and  _21
REMARK    3  A    between atoms: _5  and  _9
REMARK    4  A    between atoms: _5  and  _13
REMARK    5  A    between atoms: _6  and  _7
REMARK    6  A    between atoms: _6  and  _21
REMARK    7  A    between atoms: _9  and  _10
REMARK    8  A    between atoms: _10  and  _11
REMARK    9  A    between atoms: _11  and  _12
REMARK   10  A    between atoms: _12  and  _15
REMARK   11  A    between atoms: _17  and  _37
REMARK   12  A    between atoms: _19  and  _25
REMARK   13  A    between atoms: _20  and  _24
REMARK   14  A    between atoms: _24  and  _25
REMARK   15  A    between atoms: _27  and  _28
REMARK   16  A    between atoms: _29  and  _30
REMARK   17  A    between atoms: _31  and  _33
REMARK   18  A    between atoms: _33  and  _34
REMARK   19  A    between atoms: _33  and  _35
REMARK   20  A    between atoms: _35  and  _36
REMARK   21  A    between atoms: _35  and  _37
REMARK   22  A    between atoms: _38  and  _40
REMARK                            x       y       z     vdW  Elec       q    Type
REMARK                         _______ _______ _______ _____ _____    ______ ____
ROOT
ATOM      1  C   UNL     1      -2.437  10.302  26.435  0.00  0.00    +0.163 C 
ENDROOT
BRANCH   1   2
ATOM      2  O   UNL     1      -2.961   9.749  25.216  0.00  0.00    -0.388 OA
ATOM      3  H   UNL     1      -3.300  10.457  24.663  0.00  0.00    +0.210 HD
ENDBRANCH   1   2
BRANCH   1   4
ATOM      4  C   UNL     1      -3.480  11.197  27.126  0.00  0.00    +0.175 C 
BRANCH   4   5
ATOM      5  C   UNL     1      -4.405  11.893  26.117  0.00  0.00    +0.176 C 
ATOM      6  O   UNL     1      -3.570  12.531  25.111  0.00  0.00    -0.332 OA
ATOM      7  C   UNL     1      -4.287  13.160  23.999  0.00  0.00    +0.277 C 
ATOM      8  C   UNL     1      -5.331  14.173  24.531  0.00  0.00    +0.110 C 
ATOM      9  C   UNL     1      -6.222  13.549  25.626  0.00  0.00    +0.143 C 
ATOM     10  C   UNL     1      -5.373  12.920  26.732  0.00  0.00    +0.133 C 
BRANCH  10  11
ATOM     11  N   UNL     1      -6.231  12.254  27.724  0.00  0.00    -0.308 N 
ATOM     12  H   UNL     1      -6.716  11.414  27.441  0.00  0.00    +0.149 HD
ATOM     13  C   UNL     1      -6.411  12.687  28.975  0.00  0.00    +0.210 C 
ATOM     14  C   UNL     1      -5.679  13.983  29.369  0.00  0.00    +0.109 C 
ATOM     15  O   UNL     1      -7.125  12.100  29.789  0.00  0.00    -0.276 OA
ENDBRANCH  10  11
BRANCH   7  16
ATOM     16  C   UNL     1      -4.995  12.098  23.133  0.00  0.00    +0.414 C 
ATOM     17  O   UNL     1      -4.449  11.019  22.906  0.00  0.00    -0.240 OA
ATOM     18  O   UNL     1      -6.111  12.319  22.661  0.00  0.00    -0.240 OA
ENDBRANCH   7  16
BRANCH   7  19
ATOM     19  O   UNL     1      -3.320  13.882  23.193  0.00  0.00    -0.343 OA
ATOM     20  C   UNL     1      -3.892  14.803  22.230  0.00  0.00    +0.198 C 
ENDBRANCH   7  19
BRANCH   9  21
ATOM     21  O   UNL     1      -7.063  14.554  26.193  0.00  0.00    -0.390 OA
ATOM     22  H   UNL     1      -7.946  14.200  26.319  0.00  0.00    +0.210 HD
ENDBRANCH   9  21
ENDBRANCH   4   5
BRANCH   4  23
ATOM     23  O   UNL     1      -2.823  12.176  27.955  0.00  0.00    -0.387 OA
ATOM     24  H   UNL     1      -2.638  12.963  27.436  0.00  0.00    +0.210 HD
ENDBRANCH   4  23
ENDBRANCH   1   4
BRANCH   1  25
ATOM     25  C   UNL     1      -2.021   9.180  27.380  0.00  0.00    +0.141 C 
BRANCH  25  28
ATOM     26  C   UNL     1      -2.564   8.457  29.680  0.00  0.00    +0.401 C 
ATOM     27  O   UNL     1      -2.231   7.285  29.491  0.00  0.00    -0.226 OA
ATOM     28  N   UNL     1      -2.505   9.409  28.747  0.00  0.00    -0.279 N 
ATOM     29  H   UNL     1      -2.809  10.340  28.995  0.00  0.00    +0.152 HD
BRANCH  26  30
ATOM     30  O   UNL     1      -3.050   8.842  30.968  0.00  0.00    -0.444 OA
BRANCH  30  31
ATOM     31  C   UNL     1      -4.270   9.573  30.820  0.00  0.00    +0.292 C 
BRANCH  31  33
ATOM     32  N   UNL     1      -5.000  11.244  32.495  0.00  0.00    -0.131 NA
ATOM     33  C   UNL     1      -4.163  10.891  31.471  0.00  0.00    +0.120 A 
ATOM     34  C   UNL     1      -3.294  11.930  31.226  0.00  0.00    +0.138 A 
ATOM     35  N   UNL     1      -3.677  12.905  32.101  0.00  0.00    -0.238 N 
ATOM     36  N   UNL     1      -4.686  12.473  32.882  0.00  0.00    -0.065 NA
BRANCH  35  37
ATOM     37  C   UNL     1      -3.085  14.208  32.383  0.00  0.00    +0.217 C 
BRANCH  37  38
ATOM     38  C   UNL     1      -2.125  14.204  33.564  0.00  0.00    +0.330 C 
ATOM     39  O   UNL     1      -1.406  15.131  33.904  0.00  0.00    -0.249 OA
BRANCH  38  40
ATOM     40  O   UNL     1      -2.107  13.037  34.256  0.00  0.00    -0.479 OA
ATOM     41  H   UNL     1      -1.261  12.776  34.668  0.00  0.00    +0.295 HD
ENDBRANCH  38  40
ENDBRANCH  37  38
BRANCH  37  42
ATOM     42  C   UNL     1      -4.152  15.312  32.492  0.00  0.00    +0.049 C 
BRANCH  42  43
ATOM     43  C   UNL     1      -3.854  16.580  31.682  0.00  0.00    +0.123 C 
BRANCH  43  44
ATOM     44  C   UNL     1      -3.691  17.777  32.591  0.00  0.00    +0.305 C 
ATOM     45  O   UNL     1      -4.504  18.679  32.707  0.00  0.00    -0.251 OA
BRANCH  44  46
ATOM     46  O   UNL     1      -2.518  17.764  33.262  0.00  0.00    -0.481 OA
ATOM     47  H   UNL     1      -2.112  18.643  33.384  0.00  0.00    +0.295 HD
ENDBRANCH  44  46
ENDBRANCH  43  44
ENDBRANCH  42  43
ENDBRANCH  37  42
ENDBRANCH  35  37
ENDBRANCH  31  33
ENDBRANCH  30  31
ENDBRANCH  26  30
ENDBRANCH  25  28
ENDBRANCH   1  25
TORSDOF 20
