REMARK VINA RESULT:    -4.824      3.933      7.131
REMARK INTER + INTRA:         -11.490
REMARK INTER:                  -8.749
REMARK INTRA:                  -2.741
REMARK UNBOUND:                -3.141
REMARK  Name = lig_assembled_91.pdb
REMARK  16 active torsions:
REMARK  status: ('A' for Active; 'I' for Inactive)
REMARK    1  A    between atoms: _2  and  _10
REMARK    2  A    between atoms: _5  and  _26
REMARK    3  A    between atoms: _7  and  _8
REMARK    4  A    between atoms: _7  and  _26
REMARK    5  A    between atoms: _22  and  _42
REMARK    6  A    between atoms: _24  and  _30
REMARK    7  A    between atoms: _25  and  _29
REMARK    8  A    between atoms: _29  and  _30
REMARK    9  A    between atoms: _32  and  _33
REMARK   10  A    between atoms: _34  and  _35
REMARK   11  A    between atoms: _36  and  _38
REMARK   12  A    between atoms: _38  and  _39
REMARK   13  A    between atoms: _38  and  _40
REMARK   14  A    between atoms: _40  and  _41
REMARK   15  A    between atoms: _40  and  _42
REMARK   16  A    between atoms: _43  and  _45
REMARK                            x       y       z     vdW  Elec       q    Type
REMARK                         _______ _______ _______ _____ _____    ______ ____
ROOT
ATOM      1  C   UNL     1      -5.026  13.804  23.122  0.00  0.00    +0.401 C 
ATOM      2  O   UNL     1      -5.593  14.287  24.104  0.00  0.00    -0.226 OA
ATOM      3  N   UNL     1      -3.815  13.246  23.159  0.00  0.00    -0.279 N 
ATOM      4  H   UNL     1      -3.438  12.868  22.301  0.00  0.00    +0.152 HD
ENDROOT
BRANCH   3   5
ATOM      5  C   UNL     1      -3.000  13.150  24.376  0.00  0.00    +0.141 C 
BRANCH   5   6
ATOM      6  C   UNL     1      -3.214  11.825  25.101  0.00  0.00    +0.163 C 
BRANCH   6   7
ATOM      7  O   UNL     1      -2.005  11.048  25.070  0.00  0.00    -0.388 OA
ATOM      8  H   UNL     1      -2.153  10.209  25.513  0.00  0.00    +0.210 HD
ENDBRANCH   6   7
BRANCH   6   9
ATOM      9  C   UNL     1      -3.656  12.097  26.549  0.00  0.00    +0.175 C 
BRANCH   9  10
ATOM     10  C   UNL     1      -3.579  10.837  27.423  0.00  0.00    +0.176 C 
ATOM     11  O   UNL     1      -4.272   9.766  26.725  0.00  0.00    -0.332 OA
ATOM     12  C   UNL     1      -4.210   8.448  27.366  0.00  0.00    +0.277 C 
ATOM     13  C   UNL     1      -4.715   8.533  28.827  0.00  0.00    +0.110 C 
ATOM     14  C   UNL     1      -4.029   9.679  29.601  0.00  0.00    +0.143 C 
ATOM     15  C   UNL     1      -4.151  11.002  28.843  0.00  0.00    +0.133 C 
BRANCH  15  16
ATOM     16  N   UNL     1      -3.420  12.068  29.547  0.00  0.00    -0.308 N 
ATOM     17  H   UNL     1      -2.413  11.997  29.594  0.00  0.00    +0.149 HD
ATOM     18  C   UNL     1      -4.000  13.122  30.127  0.00  0.00    +0.210 C 
ATOM     19  C   UNL     1      -5.537  13.187  30.060  0.00  0.00    +0.109 C 
ATOM     20  O   UNL     1      -3.361  14.007  30.697  0.00  0.00    -0.276 OA
ENDBRANCH  15  16
BRANCH  12  21
ATOM     21  C   UNL     1      -2.769   7.899  27.349  0.00  0.00    +0.414 C 
ATOM     22  O   UNL     1      -2.375   7.163  28.253  0.00  0.00    -0.240 OA
ATOM     23  O   UNL     1      -2.000   8.190  26.432  0.00  0.00    -0.240 OA
ENDBRANCH  12  21
BRANCH  14  24
ATOM     24  O   UNL     1      -4.630   9.818  30.889  0.00  0.00    -0.390 OA
ATOM     25  H   UNL     1      -5.536  10.119  30.790  0.00  0.00    +0.210 HD
ENDBRANCH  14  24
BRANCH  12  26
ATOM     26  O   UNL     1      -5.083   7.551  26.632  0.00  0.00    -0.343 OA
ATOM     27  C   UNL     1      -5.634   8.099  25.407  0.00  0.00    +0.198 C 
ENDBRANCH  12  26
ENDBRANCH   9  10
BRANCH   9  28
ATOM     28  O   UNL     1      -4.994  12.633  26.567  0.00  0.00    -0.387 OA
ATOM     29  H   UNL     1      -5.178  13.065  25.729  0.00  0.00    +0.210 HD
ENDBRANCH   9  28
ENDBRANCH   6   9
ENDBRANCH   5   6
ENDBRANCH   3   5
BRANCH   1  30
ATOM     30  O   UNL     1      -5.690  13.828  21.855  0.00  0.00    -0.444 OA
BRANCH  30  31
ATOM     31  C   UNL     1      -6.419  12.611  21.675  0.00  0.00    +0.292 C 
BRANCH  31  33
ATOM     32  N   UNL     1      -4.535  11.266  20.819  0.00  0.00    -0.131 NA
ATOM     33  C   UNL     1      -5.784  11.774  20.638  0.00  0.00    +0.121 A 
ATOM     34  C   UNL     1      -6.262  11.357  19.417  0.00  0.00    +0.143 A 
ATOM     35  N   UNL     1      -5.240  10.620  18.852  0.00  0.00    -0.218 N 
ATOM     36  N   UNL     1      -4.215  10.568  19.739  0.00  0.00    -0.060 NA
BRANCH  35  37
ATOM     37  C   UNL     1      -5.171   9.992  17.570  0.00  0.00    +0.085 A 
ATOM     38  C   UNL     1      -5.503   8.597  17.427  0.00  0.00    +0.026 A 
ATOM     39  C   UNL     1      -5.377   8.071  16.127  0.00  0.00    +0.074 A 
ATOM     40  C   UNL     1      -5.668   6.740  15.866  0.00  0.00    +0.028 A 
ATOM     41  C   UNL     1      -6.098   5.867  16.858  0.00  0.00    +0.002 A 
ATOM     42  C   UNL     1      -6.270   6.347  18.142  0.00  0.00    +0.001 A 
ATOM     43  N   UNL     1      -5.005   8.789  15.070  0.00  0.00    -0.247 NA
ATOM     44  C   UNL     1      -4.727  10.085  15.200  0.00  0.00    +0.074 A 
ATOM     45  C   UNL     1      -4.345  10.738  14.032  0.00  0.00    +0.028 A 
ATOM     46  C   UNL     1      -3.989  12.082  14.014  0.00  0.00    +0.002 A 
ATOM     47  C   UNL     1      -4.000  12.793  15.198  0.00  0.00    +0.001 A 
ATOM     48  C   UNL     1      -4.375  12.150  16.382  0.00  0.00    +0.012 A 
ATOM     49  C   UNL     1      -5.999   7.691  18.418  0.00  0.00    +0.012 A 
ATOM     50  C   UNL     1      -4.773  10.774  16.423  0.00  0.00    +0.026 A 
ENDBRANCH  35  37
ENDBRANCH  31  33
ENDBRANCH  30  31
ENDBRANCH   1  30
TORSDOF 14
