REMARK VINA RESULT:    -4.681      2.578      7.943
REMARK INTER + INTRA:         -12.309
REMARK INTER:                  -8.308
REMARK INTRA:                  -4.001
REMARK UNBOUND:                -3.114
REMARK  Name = lig_assembled_10.pdb
REMARK  21 active torsions:
REMARK  status: ('A' for Active; 'I' for Inactive)
REMARK    1  A    between atoms: _2  and  _9
REMARK    2  A    between atoms: _4  and  _20
REMARK    3  A    between atoms: _5  and  _9
REMARK    4  A    between atoms: _5  and  _12
REMARK    5  A    between atoms: _6  and  _7
REMARK    6  A    between atoms: _6  and  _20
REMARK    7  A    between atoms: _9  and  _10
REMARK    8  A    between atoms: _10  and  _11
REMARK    9  A    between atoms: _11  and  _14
REMARK   10  A    between atoms: _16  and  _36
REMARK   11  A    between atoms: _18  and  _24
REMARK   12  A    between atoms: _19  and  _23
REMARK   13  A    between atoms: _23  and  _24
REMARK   14  A    between atoms: _26  and  _27
REMARK   15  A    between atoms: _28  and  _29
REMARK   16  A    between atoms: _30  and  _32
REMARK   17  A    between atoms: _32  and  _33
REMARK   18  A    between atoms: _32  and  _34
REMARK   19  A    between atoms: _34  and  _35
REMARK   20  A    between atoms: _34  and  _36
REMARK   21  A    between atoms: _37  and  _39
REMARK                            x       y       z     vdW  Elec       q    Type
REMARK                         _______ _______ _______ _____ _____    ______ ____
ROOT
ATOM      1  C   UNL     1      -1.963   8.300  27.978  0.00  0.00    +0.163 C 
ENDROOT
BRANCH   1   2
ATOM      2  O   UNL     1      -1.775   7.920  26.605  0.00  0.00    -0.388 OA
ATOM      3  H   UNL     1      -2.049   7.008  26.485  0.00  0.00    +0.210 HD
ENDBRANCH   1   2
BRANCH   1   4
ATOM      4  C   UNL     1      -3.142   9.279  28.121  0.00  0.00    +0.175 C 
BRANCH   4   5
ATOM      5  C   UNL     1      -3.670   9.751  26.759  0.00  0.00    +0.176 C 
ATOM      6  O   UNL     1      -3.948  11.175  26.855  0.00  0.00    -0.332 OA
ATOM      7  C   UNL     1      -4.365  11.825  25.609  0.00  0.00    +0.277 C 
ATOM      8  C   UNL     1      -5.586  11.093  24.999  0.00  0.00    +0.110 C 
ATOM      9  C   UNL     1      -5.350   9.571  24.906  0.00  0.00    +0.143 C 
ATOM     10  C   UNL     1      -4.917   8.999  26.257  0.00  0.00    +0.133 C 
BRANCH  10  11
ATOM     11  N   UNL     1      -4.611   7.565  26.135  0.00  0.00    -0.308 N 
ATOM     12  H   UNL     1      -3.862   7.294  25.514  0.00  0.00    +0.149 HD
ATOM     13  C   UNL     1      -5.260   6.599  26.791  0.00  0.00    +0.210 C 
ATOM     14  C   UNL     1      -6.414   7.043  27.709  0.00  0.00    +0.109 C 
ATOM     15  O   UNL     1      -4.972   5.407  26.680  0.00  0.00    -0.276 OA
ENDBRANCH  10  11
BRANCH   7  16
ATOM     16  C   UNL     1      -3.210  11.840  24.587  0.00  0.00    +0.414 C 
ATOM     17  O   UNL     1      -3.428  11.596  23.401  0.00  0.00    -0.240 OA
ATOM     18  O   UNL     1      -2.061  12.096  24.948  0.00  0.00    -0.240 OA
ENDBRANCH   7  16
BRANCH   7  19
ATOM     19  O   UNL     1      -4.758  13.186  25.923  0.00  0.00    -0.343 OA
ATOM     20  C   UNL     1      -5.877  13.693  25.153  0.00  0.00    +0.198 C 
ENDBRANCH   7  19
BRANCH   9  21
ATOM     21  O   UNL     1      -6.550   8.922  24.483  0.00  0.00    -0.390 OA
ATOM     22  H   UNL     1      -6.620   8.970  23.526  0.00  0.00    +0.210 HD
ENDBRANCH   9  21
ENDBRANCH   4   5
BRANCH   4  23
ATOM     23  O   UNL     1      -2.751  10.413  28.922  0.00  0.00    -0.387 OA
ATOM     24  H   UNL     1      -2.186  10.992  28.403  0.00  0.00    +0.210 HD
ENDBRANCH   4  23
ENDBRANCH   1   4
BRANCH   1  25
ATOM     25  C   UNL     1      -2.223   7.063  28.831  0.00  0.00    +0.141 C 
BRANCH  25  28
ATOM     26  C   UNL     1      -3.473   7.024  30.962  0.00  0.00    +0.401 C 
ATOM     27  O   UNL     1      -4.408   6.359  30.510  0.00  0.00    -0.226 OA
ATOM     28  N   UNL     1      -2.414   7.404  30.246  0.00  0.00    -0.279 N 
ATOM     29  H   UNL     1      -1.703   7.957  30.704  0.00  0.00    +0.152 HD
BRANCH  26  30
ATOM     30  O   UNL     1      -3.508   7.429  32.333  0.00  0.00    -0.444 OA
BRANCH  30  31
ATOM     31  C   UNL     1      -4.472   8.473  32.499  0.00  0.00    +0.292 C 
BRANCH  31  33
ATOM     32  N   UNL     1      -2.510   9.965  32.261  0.00  0.00    -0.131 NA
ATOM     33  C   UNL     1      -3.864   9.782  32.197  0.00  0.00    +0.120 A 
ATOM     34  C   UNL     1      -4.461  10.964  31.818  0.00  0.00    +0.138 A 
ATOM     35  N   UNL     1      -3.418  11.817  31.625  0.00  0.00    -0.237 N 
ATOM     36  N   UNL     1      -2.247  11.217  31.918  0.00  0.00    -0.065 NA
BRANCH  35  37
ATOM     37  C   UNL     1      -3.389  13.199  31.174  0.00  0.00    +0.227 C 
BRANCH  37  38
ATOM     38  C   UNL     1      -2.411  14.083  31.919  0.00  0.00    +0.330 C 
ATOM     39  O   UNL     1      -2.791  14.951  32.698  0.00  0.00    -0.249 OA
BRANCH  38  40
ATOM     40  O   UNL     1      -1.095  13.853  31.728  0.00  0.00    -0.479 OA
ATOM     41  H   UNL     1      -0.718  13.043  32.158  0.00  0.00    +0.295 HD
ENDBRANCH  38  40
ENDBRANCH  37  38
BRANCH  37  42
ATOM     42  C   UNL     1      -4.773  13.848  31.037  0.00  0.00    +0.158 C 
BRANCH  42  43
ATOM     43  C   UNL     1      -5.337  13.690  29.652  0.00  0.00    +0.307 C 
ATOM     44  O   UNL     1      -6.385  14.204  29.283  0.00  0.00    -0.251 OA
BRANCH  43  45
ATOM     45  O   UNL     1      -4.539  12.993  28.821  0.00  0.00    -0.481 OA
ATOM     46  H   UNL     1      -3.720  12.644  29.224  0.00  0.00    +0.295 HD
ENDBRANCH  43  45
ENDBRANCH  42  43
ENDBRANCH  37  42
ENDBRANCH  35  37
ENDBRANCH  31  33
ENDBRANCH  30  31
ENDBRANCH  26  30
ENDBRANCH  25  28
ENDBRANCH   1  25
TORSDOF 19
