REMARK VINA RESULT:    -4.657      3.542     10.850
REMARK INTER + INTRA:         -11.467
REMARK INTER:                  -8.521
REMARK INTRA:                  -2.947
REMARK UNBOUND:                -2.590
REMARK  Name = lig_assembled_29.pdb
REMARK  21 active torsions:
REMARK  status: ('A' for Active; 'I' for Inactive)
REMARK    1  A    between atoms: _2  and  _9
REMARK    2  A    between atoms: _4  and  _23
REMARK    3  A    between atoms: _6  and  _7
REMARK    4  A    between atoms: _6  and  _23
REMARK    5  A    between atoms: _9  and  _10
REMARK    6  A    between atoms: _12  and  _18
REMARK    7  A    between atoms: _13  and  _18
REMARK    8  A    between atoms: _14  and  _17
REMARK    9  A    between atoms: _15  and  _17
REMARK   10  A    between atoms: _19  and  _39
REMARK   11  A    between atoms: _21  and  _27
REMARK   12  A    between atoms: _22  and  _26
REMARK   13  A    between atoms: _26  and  _27
REMARK   14  A    between atoms: _29  and  _30
REMARK   15  A    between atoms: _31  and  _32
REMARK   16  A    between atoms: _33  and  _35
REMARK   17  A    between atoms: _35  and  _36
REMARK   18  A    between atoms: _35  and  _37
REMARK   19  A    between atoms: _37  and  _38
REMARK   20  A    between atoms: _37  and  _39
REMARK   21  A    between atoms: _40  and  _42
REMARK                            x       y       z     vdW  Elec       q    Type
REMARK                         _______ _______ _______ _____ _____    ______ ____
ROOT
ATOM      1  C   UNL     1      -4.063   7.769  23.780  0.00  0.00    +0.163 C 
ENDROOT
BRANCH   1   2
ATOM      2  O   UNL     1      -4.113   7.323  22.415  0.00  0.00    -0.388 OA
ATOM      3  H   UNL     1      -4.955   7.574  22.027  0.00  0.00    +0.210 HD
ENDBRANCH   1   2
BRANCH   1   4
ATOM      4  C   UNL     1      -5.084   8.892  24.030  0.00  0.00    +0.175 C 
BRANCH   4   5
ATOM      5  C   UNL     1      -4.435  10.283  23.986  0.00  0.00    +0.176 C 
ATOM      6  O   UNL     1      -4.844  11.005  25.180  0.00  0.00    -0.332 OA
ATOM      7  C   UNL     1      -4.233  12.325  25.363  0.00  0.00    +0.277 C 
ATOM      8  C   UNL     1      -4.466  13.208  24.113  0.00  0.00    +0.110 C 
ATOM      9  C   UNL     1      -4.075  12.470  22.815  0.00  0.00    +0.143 C 
ATOM     10  C   UNL     1      -4.765  11.108  22.728  0.00  0.00    +0.133 C 
BRANCH  10  11
ATOM     11  N   UNL     1      -4.317  10.379  21.531  0.00  0.00    -0.308 N 
ATOM     12  H   UNL     1      -3.347  10.102  21.483  0.00  0.00    +0.149 HD
ATOM     13  C   UNL     1      -5.110  10.059  20.505  0.00  0.00    +0.210 C 
ATOM     14  C   UNL     1      -6.577  10.518  20.597  0.00  0.00    +0.109 C 
ATOM     15  O   UNL     1      -4.711   9.435  19.521  0.00  0.00    -0.276 OA
ENDBRANCH  10  11
BRANCH   7  16
ATOM     16  C   UNL     1      -2.719  12.195  25.628  0.00  0.00    +0.414 C 
ATOM     17  O   UNL     1      -1.908  12.714  24.861  0.00  0.00    -0.240 OA
ATOM     18  O   UNL     1      -2.307  11.570  26.607  0.00  0.00    -0.240 OA
ENDBRANCH   7  16
BRANCH   7  19
ATOM     19  O   UNL     1      -4.873  12.963  26.498  0.00  0.00    -0.343 OA
ATOM     20  C   UNL     1      -6.218  13.445  26.251  0.00  0.00    +0.198 C 
ENDBRANCH   7  19
BRANCH   9  21
ATOM     21  O   UNL     1      -4.445  13.258  21.683  0.00  0.00    -0.390 OA
ATOM     22  H   UNL     1      -5.345  13.045  21.424  0.00  0.00    +0.210 HD
ENDBRANCH   9  21
ENDBRANCH   4   5
BRANCH   4  23
ATOM     23  O   UNL     1      -5.743   8.691  25.297  0.00  0.00    -0.387 OA
ATOM     24  H   UNL     1      -5.638   7.777  25.571  0.00  0.00    +0.210 HD
ENDBRANCH   4  23
ENDBRANCH   1   4
BRANCH   1  25
ATOM     25  C   UNL     1      -4.348   6.602  24.720  0.00  0.00    +0.141 C 
BRANCH  25  28
ATOM     26  C   UNL     1      -2.535   6.637  26.399  0.00  0.00    +0.401 C 
ATOM     27  O   UNL     1      -1.677   6.219  25.618  0.00  0.00    -0.226 OA
ATOM     28  N   UNL     1      -3.810   6.839  26.066  0.00  0.00    -0.279 N 
ATOM     29  H   UNL     1      -4.442   7.175  26.779  0.00  0.00    +0.152 HD
BRANCH  26  30
ATOM     30  O   UNL     1      -2.164   6.924  27.750  0.00  0.00    -0.444 OA
BRANCH  30  31
ATOM     31  C   UNL     1      -1.773   8.295  27.856  0.00  0.00    +0.292 C 
BRANCH  31  33
ATOM     32  N   UNL     1      -4.027   9.324  27.951  0.00  0.00    -0.131 NA
ATOM     33  C   UNL     1      -2.816   9.077  28.544  0.00  0.00    +0.120 A 
ATOM     34  C   UNL     1      -2.809   9.639  29.800  0.00  0.00    +0.137 A 
ATOM     35  N   UNL     1      -4.074  10.130  29.947  0.00  0.00    -0.247 N 
ATOM     36  N   UNL     1      -4.788   9.981  28.818  0.00  0.00    -0.065 NA
BRANCH  35  37
ATOM     37  C   UNL     1      -4.680  10.701  31.135  0.00  0.00    +0.180 C 
BRANCH  37  38
ATOM     38  C   UNL     1      -4.231  12.131  31.333  0.00  0.00    -0.022 A 
ATOM     39  C   UNL     1      -4.903  13.180  30.681  0.00  0.00    +0.054 A 
ATOM     40  C   UNL     1      -4.548  14.516  30.916  0.00  0.00    +0.162 A 
ATOM     41  C   UNL     1      -3.499  14.809  31.811  0.00  0.00    +0.162 A 
ATOM     42  C   UNL     1      -2.832  13.765  32.457  0.00  0.00    +0.050 A 
ATOM     43  C   UNL     1      -3.194  12.437  32.219  0.00  0.00    +0.009 A 
BRANCH  40  44
ATOM     44  O   UNL     1      -5.168  15.595  30.336  0.00  0.00    -0.491 OA
ATOM     45  C   UNL     1      -6.252  15.342  29.454  0.00  0.00    +0.277 C 
ENDBRANCH  40  44
BRANCH  41  46
ATOM     46  O   UNL     1      -3.206  16.140  31.984  0.00  0.00    -0.491 OA
ATOM     47  C   UNL     1      -3.426  16.703  33.269  0.00  0.00    +0.277 C 
ENDBRANCH  41  46
ENDBRANCH  37  38
ENDBRANCH  35  37
ENDBRANCH  31  33
ENDBRANCH  30  31
ENDBRANCH  26  30
ENDBRANCH  25  28
ENDBRANCH   1  25
TORSDOF 17
