REMARK VINA RESULT:    -4.727      4.564     10.426
REMARK INTER + INTRA:         -11.571
REMARK INTER:                  -9.258
REMARK INTRA:                  -2.313
REMARK UNBOUND:                -2.560
REMARK  Name = lig_assembled_18.pdb
REMARK  19 active torsions:
REMARK  status: ('A' for Active; 'I' for Inactive)
REMARK    1  A    between atoms: _2  and  _10
REMARK    2  A    between atoms: _3  and  _12
REMARK    3  A    between atoms: _5  and  _21
REMARK    4  A    between atoms: _7  and  _8
REMARK    5  A    between atoms: _7  and  _21
REMARK    6  A    between atoms: _10  and  _11
REMARK    7  A    between atoms: _12  and  _13
REMARK    8  A    between atoms: _17  and  _37
REMARK    9  A    between atoms: _19  and  _25
REMARK   10  A    between atoms: _20  and  _24
REMARK   11  A    between atoms: _24  and  _25
REMARK   12  A    between atoms: _27  and  _28
REMARK   13  A    between atoms: _29  and  _30
REMARK   14  A    between atoms: _31  and  _33
REMARK   15  A    between atoms: _33  and  _34
REMARK   16  A    between atoms: _33  and  _35
REMARK   17  A    between atoms: _35  and  _36
REMARK   18  A    between atoms: _35  and  _37
REMARK   19  A    between atoms: _38  and  _40
REMARK                            x       y       z     vdW  Elec       q    Type
REMARK                         _______ _______ _______ _____ _____    ______ ____
ROOT
ATOM      1  C   UNL     1      -4.787  12.050  26.075  0.00  0.00    +0.163 C 
ENDROOT
BRANCH   1   2
ATOM      2  O   UNL     1      -5.365  10.824  25.596  0.00  0.00    -0.388 OA
ATOM      3  H   UNL     1      -4.665  10.214  25.352  0.00  0.00    +0.210 HD
ENDBRANCH   1   2
BRANCH   1   4
ATOM      4  C   UNL     1      -4.831  12.116  27.611  0.00  0.00    +0.175 C 
BRANCH   4   5
ATOM      5  C   UNL     1      -3.907  11.075  28.261  0.00  0.00    +0.176 C 
ATOM      6  O   UNL     1      -4.424   9.755  27.939  0.00  0.00    -0.332 OA
ATOM      7  C   UNL     1      -3.605   8.626  28.391  0.00  0.00    +0.277 C 
ATOM      8  C   UNL     1      -3.337   8.726  29.913  0.00  0.00    +0.110 C 
ATOM      9  C   UNL     1      -2.816  10.124  30.308  0.00  0.00    +0.143 C 
ATOM     10  C   UNL     1      -3.741  11.223  29.785  0.00  0.00    +0.133 C 
BRANCH  10  11
ATOM     11  N   UNL     1      -3.188  12.552  30.092  0.00  0.00    -0.308 N 
ATOM     12  H   UNL     1      -2.326  12.820  29.640  0.00  0.00    +0.149 HD
ATOM     13  C   UNL     1      -3.752  13.426  30.930  0.00  0.00    +0.210 C 
ATOM     14  C   UNL     1      -5.053  12.977  31.623  0.00  0.00    +0.109 C 
ATOM     15  O   UNL     1      -3.274  14.538  31.157  0.00  0.00    -0.276 OA
ENDBRANCH  10  11
BRANCH   7  16
ATOM     16  C   UNL     1      -2.262   8.586  27.633  0.00  0.00    +0.414 C 
ATOM     17  O   UNL     1      -1.225   8.291  28.224  0.00  0.00    -0.240 OA
ATOM     18  O   UNL     1      -2.217   8.848  26.430  0.00  0.00    -0.240 OA
ENDBRANCH   7  16
BRANCH   7  19
ATOM     19  O   UNL     1      -4.346   7.404  28.137  0.00  0.00    -0.343 OA
ATOM     20  C   UNL     1      -5.218   7.447  26.980  0.00  0.00    +0.198 C 
ENDBRANCH   7  19
BRANCH   9  21
ATOM     21  O   UNL     1      -2.727  10.221  31.730  0.00  0.00    -0.390 OA
ATOM     22  H   UNL     1      -3.351   9.612  32.132  0.00  0.00    +0.210 HD
ENDBRANCH   9  21
ENDBRANCH   4   5
BRANCH   4  23
ATOM     23  O   UNL     1      -6.184  11.938  28.077  0.00  0.00    -0.387 OA
ATOM     24  H   UNL     1      -6.244  12.210  28.996  0.00  0.00    +0.210 HD
ENDBRANCH   4  23
ENDBRANCH   1   4
BRANCH   1  25
ATOM     25  C   UNL     1      -3.341  12.165  25.601  0.00  0.00    +0.141 C 
BRANCH  25  28
ATOM     26  C   UNL     1      -3.115  11.462  23.243  0.00  0.00    +0.401 C 
ATOM     27  O   UNL     1      -3.029  10.262  23.511  0.00  0.00    -0.226 OA
ATOM     28  N   UNL     1      -3.257  12.422  24.158  0.00  0.00    -0.279 N 
ATOM     29  H   UNL     1      -3.309  13.380  23.841  0.00  0.00    +0.152 HD
BRANCH  26  30
ATOM     30  O   UNL     1      -3.058  11.875  21.875  0.00  0.00    -0.444 OA
BRANCH  30  31
ATOM     31  C   UNL     1      -4.369  12.228  21.427  0.00  0.00    +0.292 C 
BRANCH  31  33
ATOM     32  N   UNL     1      -4.399  10.052  20.240  0.00  0.00    -0.131 NA
ATOM     33  C   UNL     1      -4.776  11.367  20.300  0.00  0.00    +0.120 A 
ATOM     34  C   UNL     1      -5.536  11.667  19.193  0.00  0.00    +0.137 A 
ATOM     35  N   UNL     1      -5.610  10.488  18.512  0.00  0.00    -0.242 N 
ATOM     36  N   UNL     1      -4.906   9.524  19.134  0.00  0.00    -0.065 NA
BRANCH  35  37
ATOM     37  C   UNL     1      -6.214  10.225  17.228  0.00  0.00    +0.240 C 
BRANCH  37  38
ATOM     38  C   UNL     1      -5.330  10.655  16.080  0.00  0.00    +0.235 C 
ATOM     39  O   UNL     1      -5.723  11.424  15.204  0.00  0.00    -0.274 OA
ATOM     40  N   UNL     1      -4.039  10.170  16.120  0.00  0.00    -0.309 N 
ATOM     41  H   UNL     1      -3.797   9.418  16.750  0.00  0.00    +0.149 HD
BRANCH  40  42
ATOM     42  C   UNL     1      -3.072  10.510  15.096  0.00  0.00    +0.146 C 
BRANCH  42  43
ATOM     43  C   UNL     1      -2.848   9.330  14.205  0.00  0.00    +0.007 A 
ATOM     44  S   UNL     1      -4.057   8.828  13.099  0.00  0.00    -0.100 S 
ATOM     45  C   UNL     1      -3.116   7.500  12.574  0.00  0.00    +0.045 A 
ATOM     46  C   UNL     1      -1.897   7.443  13.213  0.00  0.00    +0.008 A 
ATOM     47  C   UNL     1      -1.740   8.506  14.149  0.00  0.00    +0.013 A 
ENDBRANCH  42  43
ENDBRANCH  40  42
ENDBRANCH  37  38
ENDBRANCH  35  37
ENDBRANCH  31  33
ENDBRANCH  30  31
ENDBRANCH  26  30
ENDBRANCH  25  28
ENDBRANCH   1  25
TORSDOF 17
