REMARK VINA RESULT:    -4.458      1.578      2.249
REMARK INTER + INTRA:         -10.769
REMARK INTER:                  -7.616
REMARK INTRA:                  -3.153
REMARK UNBOUND:                -2.792
REMARK  Name = lig_assembled_5.pdb
REMARK  18 active torsions:
REMARK  status: ('A' for Active; 'I' for Inactive)
REMARK    1  A    between atoms: _2  and  _9
REMARK    2  A    between atoms: _4  and  _20
REMARK    3  A    between atoms: _6  and  _7
REMARK    4  A    between atoms: _6  and  _20
REMARK    5  A    between atoms: _12  and  _15
REMARK    6  A    between atoms: _13  and  _15
REMARK    7  A    between atoms: _16  and  _36
REMARK    8  A    between atoms: _18  and  _24
REMARK    9  A    between atoms: _19  and  _23
REMARK   10  A    between atoms: _23  and  _24
REMARK   11  A    between atoms: _26  and  _27
REMARK   12  A    between atoms: _28  and  _29
REMARK   13  A    between atoms: _30  and  _32
REMARK   14  A    between atoms: _32  and  _33
REMARK   15  A    between atoms: _32  and  _34
REMARK   16  A    between atoms: _34  and  _35
REMARK   17  A    between atoms: _34  and  _36
REMARK   18  A    between atoms: _37  and  _39
REMARK                            x       y       z     vdW  Elec       q    Type
REMARK                         _______ _______ _______ _____ _____    ______ ____
ROOT
ATOM      1  C   UNL     1      -6.109   8.283  24.854  0.00  0.00    +0.163 C 
ENDROOT
BRANCH   1   2
ATOM      2  O   UNL     1      -6.227   8.931  26.131  0.00  0.00    -0.388 OA
ATOM      3  H   UNL     1      -7.112   9.292  26.227  0.00  0.00    +0.210 HD
ENDBRANCH   1   2
BRANCH   1   4
ATOM      4  C   UNL     1      -4.776   7.546  24.765  0.00  0.00    +0.141 C 
BRANCH   4   7
ATOM      5  C   UNL     1      -3.038   6.855  26.380  0.00  0.00    +0.401 C 
ATOM      6  O   UNL     1      -2.757   5.817  25.777  0.00  0.00    -0.226 OA
ATOM      7  N   UNL     1      -3.973   7.719  25.981  0.00  0.00    -0.279 N 
ATOM      8  H   UNL     1      -4.137   8.539  26.549  0.00  0.00    +0.152 HD
BRANCH   5   9
ATOM      9  O   UNL     1      -2.334   7.171  27.583  0.00  0.00    -0.444 OA
BRANCH   9  10
ATOM     10  C   UNL     1      -3.236   7.119  28.692  0.00  0.00    +0.292 C 
BRANCH  10  12
ATOM     11  N   UNL     1      -4.850   8.987  28.862  0.00  0.00    -0.131 NA
ATOM     12  C   UNL     1      -3.607   8.484  29.114  0.00  0.00    +0.121 A 
ATOM     13  C   UNL     1      -2.866   9.430  29.782  0.00  0.00    +0.143 A 
ATOM     14  N   UNL     1      -3.716  10.500  29.945  0.00  0.00    -0.220 N 
ATOM     15  N   UNL     1      -4.908  10.214  29.362  0.00  0.00    -0.060 NA
BRANCH  14  16
ATOM     16  C   UNL     1      -3.484  11.725  30.623  0.00  0.00    +0.067 A 
ATOM     17  C   UNL     1      -3.892  12.942  30.064  0.00  0.00    +0.031 A 
ATOM     18  C   UNL     1      -3.599  14.141  30.718  0.00  0.00    +0.048 A 
ATOM     19  C   UNL     1      -2.921  14.145  31.938  0.00  0.00    +0.120 A 
ATOM     20  C   UNL     1      -2.528  12.934  32.505  0.00  0.00    +0.048 A 
ATOM     21  C   UNL     1      -2.807  11.726  31.851  0.00  0.00    +0.031 A 
BRANCH  19  22
ATOM     22  O   UNL     1      -2.645  15.387  32.438  0.00  0.00    -0.495 OA
ATOM     23  C   UNL     1      -3.129  15.663  33.746  0.00  0.00    +0.277 C 
ENDBRANCH  19  22
ENDBRANCH  14  16
ENDBRANCH  10  12
ENDBRANCH   9  10
ENDBRANCH   5   9
ENDBRANCH   4   7
ENDBRANCH   1   4
BRANCH   1  24
ATOM     24  C   UNL     1      -6.210   9.303  23.707  0.00  0.00    +0.175 C 
BRANCH  24  25
ATOM     25  C   UNL     1      -5.116  10.377  23.792  0.00  0.00    +0.176 C 
ATOM     26  O   UNL     1      -5.452  11.274  24.886  0.00  0.00    -0.332 OA
ATOM     27  C   UNL     1      -4.459  12.310  25.186  0.00  0.00    +0.277 C 
ATOM     28  C   UNL     1      -4.136  13.133  23.915  0.00  0.00    +0.110 C 
ATOM     29  C   UNL     1      -3.802  12.222  22.715  0.00  0.00    +0.143 C 
ATOM     30  C   UNL     1      -4.900  11.180  22.495  0.00  0.00    +0.133 C 
BRANCH  30  31
ATOM     31  N   UNL     1      -4.530  10.264  21.405  0.00  0.00    -0.308 N 
ATOM     32  H   UNL     1      -3.707   9.691  21.530  0.00  0.00    +0.149 HD
ATOM     33  C   UNL     1      -5.210  10.140  20.262  0.00  0.00    +0.210 C 
ATOM     34  C   UNL     1      -6.444  11.046  20.092  0.00  0.00    +0.109 C 
ATOM     35  O   UNL     1      -4.884   9.353  19.373  0.00  0.00    -0.276 OA
ENDBRANCH  30  31
BRANCH  27  36
ATOM     36  C   UNL     1      -3.162  11.680  25.736  0.00  0.00    +0.414 C 
ATOM     37  O   UNL     1      -3.212  10.665  26.430  0.00  0.00    -0.240 OA
ATOM     38  O   UNL     1      -2.068  12.188  25.488  0.00  0.00    -0.240 OA
ENDBRANCH  27  36
BRANCH  27  39
ATOM     39  O   UNL     1      -5.028  13.203  26.177  0.00  0.00    -0.343 OA
ATOM     40  C   UNL     1      -6.199  12.692  26.862  0.00  0.00    +0.198 C 
ENDBRANCH  27  39
BRANCH  29  41
ATOM     41  O   UNL     1      -3.660  13.012  21.535  0.00  0.00    -0.390 OA
ATOM     42  H   UNL     1      -4.449  12.926  20.994  0.00  0.00    +0.210 HD
ENDBRANCH  29  41
ENDBRANCH  24  25
BRANCH  24  43
ATOM     43  O   UNL     1      -7.513   9.920  23.705  0.00  0.00    -0.387 OA
ATOM     44  H   UNL     1      -7.990   9.664  24.498  0.00  0.00    +0.210 HD
ENDBRANCH  24  43
ENDBRANCH   1  24
TORSDOF 15
