REMARK VINA RESULT:    -4.377      5.571     11.134
REMARK INTER + INTRA:         -11.490
REMARK INTER:                  -9.665
REMARK INTRA:                  -1.825
REMARK UNBOUND:                -3.914
REMARK  Name = lig_assembled_20.pdb
REMARK  16 active torsions:
REMARK  status: ('A' for Active; 'I' for Inactive)
REMARK    1  A    between atoms: _2  and  _11
REMARK    2  A    between atoms: _6  and  _21
REMARK    3  A    between atoms: _8  and  _9
REMARK    4  A    between atoms: _8  and  _21
REMARK    5  A    between atoms: _17  and  _37
REMARK    6  A    between atoms: _19  and  _25
REMARK    7  A    between atoms: _20  and  _24
REMARK    8  A    between atoms: _24  and  _25
REMARK    9  A    between atoms: _27  and  _28
REMARK   10  A    between atoms: _29  and  _30
REMARK   11  A    between atoms: _31  and  _33
REMARK   12  A    between atoms: _33  and  _34
REMARK   13  A    between atoms: _33  and  _35
REMARK   14  A    between atoms: _35  and  _36
REMARK   15  A    between atoms: _35  and  _37
REMARK   16  A    between atoms: _38  and  _40
REMARK                            x       y       z     vdW  Elec       q    Type
REMARK                         _______ _______ _______ _____ _____    ______ ____
ROOT
ATOM      1  C   UNL     1      -4.896  11.371  21.187  0.00  0.00    +0.163 C 
ENDROOT
BRANCH   1   2
ATOM      2  O   UNL     1      -5.141   9.984  20.900  0.00  0.00    -0.388 OA
ATOM      3  H   UNL     1      -6.062   9.778  21.075  0.00  0.00    +0.210 HD
ENDBRANCH   1   2
BRANCH   1   4
ATOM      4  C   UNL     1      -4.940  12.185  19.898  0.00  0.00    +0.141 C 
BRANCH   4   7
ATOM      5  C   UNL     1      -4.914  11.491  17.527  0.00  0.00    +0.401 C 
ATOM      6  O   UNL     1      -5.898  12.167  17.220  0.00  0.00    -0.226 OA
ATOM      7  N   UNL     1      -4.401  11.435  18.757  0.00  0.00    -0.279 N 
ATOM      8  H   UNL     1      -3.597  10.843  18.913  0.00  0.00    +0.152 HD
BRANCH   5   9
ATOM      9  O   UNL     1      -4.269  10.707  16.520  0.00  0.00    -0.444 OA
BRANCH   9  10
ATOM     10  C   UNL     1      -4.821  11.025  15.240  0.00  0.00    +0.292 C 
BRANCH  10  12
ATOM     11  N   UNL     1      -3.036  11.165  13.524  0.00  0.00    -0.131 NA
ATOM     12  C   UNL     1      -3.848  11.783  14.430  0.00  0.00    +0.121 A 
ATOM     13  C   UNL     1      -3.585  13.132  14.422  0.00  0.00    +0.143 A 
ATOM     14  N   UNL     1      -2.593  13.299  13.484  0.00  0.00    -0.220 N 
ATOM     15  N   UNL     1      -2.276  12.092  12.952  0.00  0.00    -0.060 NA
BRANCH  14  16
ATOM     16  C   UNL     1      -1.955  14.500  13.079  0.00  0.00    +0.068 A 
ATOM     17  C   UNL     1      -2.626  15.727  13.210  0.00  0.00    +0.030 A 
ATOM     18  C   UNL     1      -2.022  16.932  12.825  0.00  0.00    +0.030 A 
ATOM     19  C   UNL     1      -0.726  16.860  12.306  0.00  0.00    +0.066 A 
ATOM     20  C   UNL     1      -0.037  15.663  12.161  0.00  0.00    +0.021 A 
ATOM     21  C   UNL     1       1.209  16.033  11.610  0.00  0.00    +0.142 A 
ATOM     22  N   UNL     1       1.316  17.350  11.417  0.00  0.00    -0.181 NA
ATOM     23  N   UNL     1       0.134  17.825  11.848  0.00  0.00    -0.277 N 
ATOM     24  H   UNL     1      -0.029  18.824  11.801  0.00  0.00    +0.189 HD
ATOM     25  C   UNL     1      -0.651  14.459  12.550  0.00  0.00    +0.039 A 
ENDBRANCH  14  16
ENDBRANCH  10  12
ENDBRANCH   9  10
ENDBRANCH   5   9
ENDBRANCH   4   7
ENDBRANCH   1   4
BRANCH   1  26
ATOM     26  C   UNL     1      -3.529  11.558  21.867  0.00  0.00    +0.175 C 
BRANCH  26  27
ATOM     27  C   UNL     1      -3.664  11.799  23.378  0.00  0.00    +0.176 C 
ATOM     28  O   UNL     1      -4.095  10.554  23.992  0.00  0.00    -0.332 OA
ATOM     29  C   UNL     1      -4.177  10.564  25.456  0.00  0.00    +0.277 C 
ATOM     30  C   UNL     1      -5.079  11.726  25.940  0.00  0.00    +0.110 C 
ATOM     31  C   UNL     1      -4.678  13.067  25.288  0.00  0.00    +0.143 C 
ATOM     32  C   UNL     1      -4.621  12.941  23.766  0.00  0.00    +0.133 C 
BRANCH  32  33
ATOM     33  N   UNL     1      -4.155  14.200  23.162  0.00  0.00    -0.308 N 
ATOM     34  H   UNL     1      -3.186  14.454  23.291  0.00  0.00    +0.149 HD
ATOM     35  C   UNL     1      -4.929  15.028  22.455  0.00  0.00    +0.210 C 
ATOM     36  C   UNL     1      -6.407  14.625  22.299  0.00  0.00    +0.109 C 
ATOM     37  O   UNL     1      -4.507  16.068  21.949  0.00  0.00    -0.276 OA
ENDBRANCH  32  33
BRANCH  29  38
ATOM     38  C   UNL     1      -2.773  10.706  26.081  0.00  0.00    +0.414 C 
ATOM     39  O   UNL     1      -1.769  10.481  25.407  0.00  0.00    -0.240 OA
ATOM     40  O   UNL     1      -2.646  11.046  27.258  0.00  0.00    -0.240 OA
ENDBRANCH  29  38
BRANCH  31  41
ATOM     41  O   UNL     1      -5.625  14.076  25.643  0.00  0.00    -0.390 OA
ATOM     42  H   UNL     1      -6.436  13.662  25.946  0.00  0.00    +0.210 HD
ENDBRANCH  31  41
BRANCH  29  43
ATOM     43  O   UNL     1      -4.776   9.313  25.881  0.00  0.00    -0.343 OA
ATOM     44  C   UNL     1      -4.199   8.124  25.285  0.00  0.00    +0.198 C 
ENDBRANCH  29  43
ENDBRANCH  26  27
BRANCH  26  45
ATOM     45  O   UNL     1      -2.814  12.649  21.252  0.00  0.00    -0.387 OA
ATOM     46  H   UNL     1      -1.869  12.489  21.317  0.00  0.00    +0.210 HD
ENDBRANCH  26  45
ENDBRANCH   1  26
TORSDOF 14
