REMARK VINA RESULT:    -4.845      1.814      2.836
REMARK INTER + INTRA:         -11.825
REMARK INTER:                  -9.554
REMARK INTRA:                  -2.271
REMARK UNBOUND:                -2.590
REMARK  Name = lig_assembled_29.pdb
REMARK  21 active torsions:
REMARK  status: ('A' for Active; 'I' for Inactive)
REMARK    1  A    between atoms: _2  and  _9
REMARK    2  A    between atoms: _4  and  _23
REMARK    3  A    between atoms: _6  and  _7
REMARK    4  A    between atoms: _6  and  _23
REMARK    5  A    between atoms: _9  and  _10
REMARK    6  A    between atoms: _12  and  _18
REMARK    7  A    between atoms: _13  and  _18
REMARK    8  A    between atoms: _14  and  _17
REMARK    9  A    between atoms: _15  and  _17
REMARK   10  A    between atoms: _19  and  _39
REMARK   11  A    between atoms: _21  and  _27
REMARK   12  A    between atoms: _22  and  _26
REMARK   13  A    between atoms: _26  and  _27
REMARK   14  A    between atoms: _29  and  _30
REMARK   15  A    between atoms: _31  and  _32
REMARK   16  A    between atoms: _33  and  _35
REMARK   17  A    between atoms: _35  and  _36
REMARK   18  A    between atoms: _35  and  _37
REMARK   19  A    between atoms: _37  and  _38
REMARK   20  A    between atoms: _37  and  _39
REMARK   21  A    between atoms: _40  and  _42
REMARK                            x       y       z     vdW  Elec       q    Type
REMARK                         _______ _______ _______ _____ _____    ______ ____
ROOT
ATOM      1  C   UNL     1      -5.404  11.776  27.661  0.00  0.00    +0.163 C 
ENDROOT
BRANCH   1   2
ATOM      2  O   UNL     1      -6.228  11.089  26.705  0.00  0.00    -0.388 OA
ATOM      3  H   UNL     1      -6.192  11.548  25.862  0.00  0.00    +0.210 HD
ENDBRANCH   1   2
BRANCH   1   4
ATOM      4  C   UNL     1      -5.075  10.867  28.858  0.00  0.00    +0.175 C 
BRANCH   4   5
ATOM      5  C   UNL     1      -4.096   9.745  28.480  0.00  0.00    +0.176 C 
ATOM      6  O   UNL     1      -4.846   8.715  27.779  0.00  0.00    -0.332 OA
ATOM      7  C   UNL     1      -4.050   7.605  27.245  0.00  0.00    +0.277 C 
ATOM      8  C   UNL     1      -3.199   6.961  28.367  0.00  0.00    +0.110 C 
ATOM      9  C   UNL     1      -2.408   8.022  29.161  0.00  0.00    +0.143 C 
ATOM     10  C   UNL     1      -3.331   9.131  29.667  0.00  0.00    +0.133 C 
BRANCH  10  11
ATOM     11  N   UNL     1      -2.554  10.179  30.347  0.00  0.00    -0.308 N 
ATOM     12  H   UNL     1      -1.866  10.682  29.805  0.00  0.00    +0.149 HD
ATOM     13  C   UNL     1      -2.698  10.508  31.633  0.00  0.00    +0.210 C 
ATOM     14  C   UNL     1      -3.737   9.704  32.439  0.00  0.00    +0.109 C 
ATOM     15  O   UNL     1      -2.044  11.401  32.172  0.00  0.00    -0.276 OA
ENDBRANCH  10  11
BRANCH   7  16
ATOM     16  C   UNL     1      -3.126   8.091  26.110  0.00  0.00    +0.414 C 
ATOM     17  O   UNL     1      -3.432   9.076  25.439  0.00  0.00    -0.240 OA
ATOM     18  O   UNL     1      -2.074   7.499  25.865  0.00  0.00    -0.240 OA
ENDBRANCH   7  16
BRANCH   7  19
ATOM     19  O   UNL     1      -4.966   6.602  26.734  0.00  0.00    -0.343 OA
ATOM     20  C   UNL     1      -6.352   7.021  26.658  0.00  0.00    +0.198 C 
ENDBRANCH   7  19
BRANCH   9  21
ATOM     21  O   UNL     1      -1.759   7.406  30.274  0.00  0.00    -0.390 OA
ATOM     22  H   UNL     1      -2.086   6.510  30.380  0.00  0.00    +0.210 HD
ENDBRANCH   9  21
ENDBRANCH   4   5
BRANCH   4  23
ATOM     23  O   UNL     1      -6.286  10.306  29.403  0.00  0.00    -0.387 OA
ATOM     24  H   UNL     1      -6.204   9.351  29.451  0.00  0.00    +0.210 HD
ENDBRANCH   4  23
ENDBRANCH   1   4
BRANCH   1  25
ATOM     25  C   UNL     1      -4.109  12.235  26.999  0.00  0.00    +0.141 C 
BRANCH  25  28
ATOM     26  C   UNL     1      -3.196  12.354  24.706  0.00  0.00    +0.401 C 
ATOM     27  O   UNL     1      -2.019  12.350  25.073  0.00  0.00    -0.226 OA
ATOM     28  N   UNL     1      -4.237  12.309  25.539  0.00  0.00    -0.279 N 
ATOM     29  H   UNL     1      -5.166  12.326  25.142  0.00  0.00    +0.152 HD
BRANCH  26  30
ATOM     30  O   UNL     1      -3.487  12.415  23.307  0.00  0.00    -0.444 OA
BRANCH  30  31
ATOM     31  C   UNL     1      -2.987  11.240  22.664  0.00  0.00    +0.292 C 
BRANCH  31  33
ATOM     32  N   UNL     1      -4.724   9.836  21.586  0.00  0.00    -0.131 NA
ATOM     33  C   UNL     1      -3.838  10.879  21.515  0.00  0.00    +0.120 A 
ATOM     34  C   UNL     1      -3.935  11.468  20.275  0.00  0.00    +0.137 A 
ATOM     35  N   UNL     1      -4.961  10.796  19.673  0.00  0.00    -0.247 N 
ATOM     36  N   UNL     1      -5.401   9.787  20.445  0.00  0.00    -0.065 NA
BRANCH  35  37
ATOM     37  C   UNL     1      -5.599  11.089  18.404  0.00  0.00    +0.180 C 
BRANCH  37  38
ATOM     38  C   UNL     1      -4.838  10.455  17.261  0.00  0.00    -0.022 A 
ATOM     39  C   UNL     1      -4.142  11.261  16.343  0.00  0.00    +0.054 A 
ATOM     40  C   UNL     1      -3.368  10.683  15.326  0.00  0.00    +0.162 A 
ATOM     41  C   UNL     1      -3.296   9.280  15.218  0.00  0.00    +0.162 A 
ATOM     42  C   UNL     1      -3.990   8.482  16.131  0.00  0.00    +0.050 A 
ATOM     43  C   UNL     1      -4.757   9.065  17.143  0.00  0.00    +0.009 A 
BRANCH  40  44
ATOM     44  O   UNL     1      -2.642  11.399  14.405  0.00  0.00    -0.491 OA
ATOM     45  C   UNL     1      -3.359  12.144  13.431  0.00  0.00    +0.277 C 
ENDBRANCH  40  44
BRANCH  41  46
ATOM     46  O   UNL     1      -2.524   8.792  14.192  0.00  0.00    -0.491 OA
ATOM     47  C   UNL     1      -1.369   8.039  14.536  0.00  0.00    +0.277 C 
ENDBRANCH  41  46
ENDBRANCH  37  38
ENDBRANCH  35  37
ENDBRANCH  31  33
ENDBRANCH  30  31
ENDBRANCH  26  30
ENDBRANCH  25  28
ENDBRANCH   1  25
TORSDOF 17
