REMARK VINA RESULT:    -5.498      2.146      4.683
REMARK INTER + INTRA:         -12.426
REMARK INTER:                 -10.081
REMARK INTRA:                  -2.345
REMARK UNBOUND:                -2.589
REMARK  Name = lig_assembled_82.pdb
REMARK  19 active torsions:
REMARK  status: ('A' for Active; 'I' for Inactive)
REMARK    1  A    between atoms: _2  and  _9
REMARK    2  A    between atoms: _4  and  _22
REMARK    3  A    between atoms: _5  and  _16
REMARK    4  A    between atoms: _6  and  _7
REMARK    5  A    between atoms: _6  and  _22
REMARK    6  A    between atoms: _9  and  _10
REMARK    7  A    between atoms: _16  and  _17
REMARK    8  A    between atoms: _18  and  _38
REMARK    9  A    between atoms: _20  and  _26
REMARK   10  A    between atoms: _21  and  _25
REMARK   11  A    between atoms: _25  and  _26
REMARK   12  A    between atoms: _28  and  _29
REMARK   13  A    between atoms: _30  and  _31
REMARK   14  A    between atoms: _32  and  _34
REMARK   15  A    between atoms: _34  and  _35
REMARK   16  A    between atoms: _34  and  _36
REMARK   17  A    between atoms: _36  and  _37
REMARK   18  A    between atoms: _36  and  _38
REMARK   19  A    between atoms: _39  and  _41
REMARK                            x       y       z     vdW  Elec       q    Type
REMARK                         _______ _______ _______ _____ _____    ______ ____
ROOT
ATOM      1  C   UNL     1      -2.723  10.077  30.436  0.00  0.00    +0.163 C 
ENDROOT
BRANCH   1   2
ATOM      2  O   UNL     1      -3.312  10.829  29.362  0.00  0.00    -0.388 OA
ATOM      3  H   UNL     1      -3.533  11.710  29.672  0.00  0.00    +0.210 HD
ENDBRANCH   1   2
BRANCH   1   4
ATOM      4  C   UNL     1      -3.247   8.644  30.418  0.00  0.00    +0.141 C 
BRANCH   4   7
ATOM      5  C   UNL     1      -3.840   7.176  28.521  0.00  0.00    +0.401 C 
ATOM      6  O   UNL     1      -3.120   6.247  28.893  0.00  0.00    -0.226 OA
ATOM      7  N   UNL     1      -3.955   8.336  29.170  0.00  0.00    -0.279 N 
ATOM      8  H   UNL     1      -4.564   9.042  28.780  0.00  0.00    +0.152 HD
BRANCH   5   9
ATOM      9  O   UNL     1      -4.604   7.026  27.322  0.00  0.00    -0.444 OA
BRANCH   9  10
ATOM     10  C   UNL     1      -3.730   7.075  26.190  0.00  0.00    +0.292 C 
BRANCH  10  12
ATOM     11  N   UNL     1      -1.744   8.533  26.406  0.00  0.00    -0.131 NA
ATOM     12  C   UNL     1      -3.073   8.381  26.091  0.00  0.00    +0.120 A 
ATOM     13  C   UNL     1      -3.577   9.613  25.715  0.00  0.00    +0.137 A 
ATOM     14  N   UNL     1      -2.547  10.481  25.949  0.00  0.00    -0.247 N 
ATOM     15  N   UNL     1      -1.425   9.813  26.277  0.00  0.00    -0.065 NA
BRANCH  14  16
ATOM     16  C   UNL     1      -2.576  11.945  25.971  0.00  0.00    +0.176 C 
BRANCH  16  17
ATOM     17  C   UNL     1      -3.617  12.519  25.040  0.00  0.00    -0.049 C 
ATOM     18  C   UNL     1      -3.266  12.636  23.591  0.00  0.00    +0.023 C 
ATOM     19  C   UNL     1      -4.411  12.380  22.510  0.00  0.00    -0.025 C 
ATOM     20  C   UNL     1      -5.619  11.436  22.524  0.00  0.00    +0.012 C 
ATOM     21  C   UNL     1      -4.874  13.838  22.980  0.00  0.00    -0.000 C 
ATOM     22  C   UNL     1      -5.588  13.880  24.368  0.00  0.00    +0.031 C 
ATOM     23  C   UNL     1      -3.630  12.054  21.212  0.00  0.00    +0.012 C 
ATOM     24  C   UNL     1      -3.364  14.153  23.153  0.00  0.00    +0.012 C 
ATOM     25  C   UNL     1      -4.775  13.107  25.395  0.00  0.00    -0.025 C 
ENDBRANCH  16  17
ENDBRANCH  14  16
ENDBRANCH  10  12
ENDBRANCH   9  10
ENDBRANCH   5   9
ENDBRANCH   4   7
ENDBRANCH   1   4
BRANCH   1  26
ATOM     26  C   UNL     1      -3.036  10.722  31.796  0.00  0.00    +0.175 C 
BRANCH  26  27
ATOM     27  C   UNL     1      -3.844  12.019  31.648  0.00  0.00    +0.176 C 
ATOM     28  O   UNL     1      -3.306  12.992  32.585  0.00  0.00    -0.332 OA
ATOM     29  C   UNL     1      -3.889  14.335  32.511  0.00  0.00    +0.277 C 
ATOM     30  C   UNL     1      -5.429  14.264  32.658  0.00  0.00    +0.110 C 
ATOM     31  C   UNL     1      -6.045  13.220  31.703  0.00  0.00    +0.143 C 
ATOM     32  C   UNL     1      -5.361  11.862  31.861  0.00  0.00    +0.133 C 
BRANCH  32  33
ATOM     33  N   UNL     1      -5.897  10.899  30.886  0.00  0.00    -0.308 N 
ATOM     34  H   UNL     1      -5.883  11.159  29.910  0.00  0.00    +0.149 HD
ATOM     35  C   UNL     1      -6.400   9.704  31.207  0.00  0.00    +0.210 C 
ATOM     36  C   UNL     1      -6.431   9.348  32.705  0.00  0.00    +0.109 C 
ATOM     37  O   UNL     1      -6.829   8.911  30.367  0.00  0.00    -0.276 OA
ENDBRANCH  32  33
BRANCH  29  38
ATOM     38  C   UNL     1      -3.529  15.015  31.174  0.00  0.00    +0.414 C 
ATOM     39  O   UNL     1      -4.225  15.930  30.736  0.00  0.00    -0.240 OA
ATOM     40  O   UNL     1      -2.542  14.649  30.534  0.00  0.00    -0.240 OA
ENDBRANCH  29  38
BRANCH  29  41
ATOM     41  O   UNL     1      -3.360  15.115  33.614  0.00  0.00    -0.343 OA
ATOM     42  C   UNL     1      -2.058  14.694  34.093  0.00  0.00    +0.198 C 
ENDBRANCH  29  41
BRANCH  31  43
ATOM     43  O   UNL     1      -7.439  13.081  31.976  0.00  0.00    -0.390 OA
ATOM     44  H   UNL     1      -7.873  12.667  31.226  0.00  0.00    +0.210 HD
ENDBRANCH  31  43
ENDBRANCH  26  27
BRANCH  26  45
ATOM     45  O   UNL     1      -1.815  10.978  32.518  0.00  0.00    -0.387 OA
ATOM     46  H   UNL     1      -1.473  10.153  32.871  0.00  0.00    +0.210 HD
ENDBRANCH  26  45
ENDBRANCH   1  26
TORSDOF 15
