REMARK VINA RESULT:    -5.118      2.678      4.643
REMARK INTER + INTRA:         -12.317
REMARK INTER:                  -8.212
REMARK INTRA:                  -4.105
REMARK UNBOUND:                -2.560
REMARK  Name = lig_assembled_18.pdb
REMARK  19 active torsions:
REMARK  status: ('A' for Active; 'I' for Inactive)
REMARK    1  A    between atoms: _2  and  _10
REMARK    2  A    between atoms: _3  and  _12
REMARK    3  A    between atoms: _5  and  _21
REMARK    4  A    between atoms: _7  and  _8
REMARK    5  A    between atoms: _7  and  _21
REMARK    6  A    between atoms: _10  and  _11
REMARK    7  A    between atoms: _12  and  _13
REMARK    8  A    between atoms: _17  and  _37
REMARK    9  A    between atoms: _19  and  _25
REMARK   10  A    between atoms: _20  and  _24
REMARK   11  A    between atoms: _24  and  _25
REMARK   12  A    between atoms: _27  and  _28
REMARK   13  A    between atoms: _29  and  _30
REMARK   14  A    between atoms: _31  and  _33
REMARK   15  A    between atoms: _33  and  _34
REMARK   16  A    between atoms: _33  and  _35
REMARK   17  A    between atoms: _35  and  _36
REMARK   18  A    between atoms: _35  and  _37
REMARK   19  A    between atoms: _38  and  _40
REMARK                            x       y       z     vdW  Elec       q    Type
REMARK                         _______ _______ _______ _____ _____    ______ ____
ROOT
ATOM      1  C   UNL     1      -4.053  13.147  21.669  0.00  0.00    +0.163 C 
ENDROOT
BRANCH   1   2
ATOM      2  O   UNL     1      -5.144  13.053  20.739  0.00  0.00    -0.388 OA
ATOM      3  H   UNL     1      -5.738  12.350  21.011  0.00  0.00    +0.210 HD
ENDBRANCH   1   2
BRANCH   1   4
ATOM      4  C   UNL     1      -4.526  12.847  23.103  0.00  0.00    +0.175 C 
BRANCH   4   5
ATOM      5  C   UNL     1      -5.737  13.702  23.503  0.00  0.00    +0.176 C 
ATOM      6  O   UNL     1      -5.525  15.046  22.987  0.00  0.00    -0.332 OA
ATOM      7  C   UNL     1      -6.636  15.982  23.184  0.00  0.00    +0.277 C 
ATOM      8  C   UNL     1      -7.027  16.051  24.680  0.00  0.00    +0.110 C 
ATOM      9  C   UNL     1      -7.232  14.644  25.281  0.00  0.00    +0.143 C 
ATOM     10  C   UNL     1      -6.018  13.753  25.016  0.00  0.00    +0.133 C 
BRANCH  10  11
ATOM     11  N   UNL     1      -6.260  12.391  25.517  0.00  0.00    -0.308 N 
ATOM     12  H   UNL     1      -6.912  11.810  25.008  0.00  0.00    +0.149 HD
ATOM     13  C   UNL     1      -5.675  11.871  26.599  0.00  0.00    +0.210 C 
ATOM     14  C   UNL     1      -4.707  12.790  27.368  0.00  0.00    +0.109 C 
ATOM     15  O   UNL     1      -5.886  10.722  26.987  0.00  0.00    -0.276 OA
ENDBRANCH  10  11
BRANCH   7  16
ATOM     16  C   UNL     1      -7.863  15.558  22.349  0.00  0.00    +0.414 C 
ATOM     17  O   UNL     1      -7.721  14.849  21.354  0.00  0.00    -0.240 OA
ATOM     18  O   UNL     1      -8.994  15.925  22.671  0.00  0.00    -0.240 OA
ENDBRANCH   7  16
BRANCH   7  19
ATOM     19  O   UNL     1      -6.192  17.299  22.766  0.00  0.00    -0.343 OA
ATOM     20  C   UNL     1      -6.413  18.355  23.734  0.00  0.00    +0.198 C 
ENDBRANCH   7  19
BRANCH   9  21
ATOM     21  O   UNL     1      -7.441  14.748  26.690  0.00  0.00    -0.390 OA
ATOM     22  H   UNL     1      -8.088  15.434  26.869  0.00  0.00    +0.210 HD
ENDBRANCH   9  21
ENDBRANCH   4   5
BRANCH   4  23
ATOM     23  O   UNL     1      -3.445  13.050  24.034  0.00  0.00    -0.387 OA
ATOM     24  H   UNL     1      -2.923  12.246  24.100  0.00  0.00    +0.210 HD
ENDBRANCH   4  23
ENDBRANCH   1   4
BRANCH   1  25
ATOM     25  C   UNL     1      -2.951  12.167  21.281  0.00  0.00    +0.141 C 
BRANCH  25  28
ATOM     26  C   UNL     1      -3.831   9.903  21.734  0.00  0.00    +0.401 C 
ATOM     27  O   UNL     1      -4.597   9.906  20.768  0.00  0.00    -0.226 OA
ATOM     28  N   UNL     1      -3.029  10.921  22.052  0.00  0.00    -0.279 N 
ATOM     29  H   UNL     1      -2.443  10.828  22.870  0.00  0.00    +0.152 HD
BRANCH  26  30
ATOM     30  O   UNL     1      -3.785   8.752  22.581  0.00  0.00    -0.444 OA
BRANCH  30  31
ATOM     31  C   UNL     1      -4.524   9.010  23.777  0.00  0.00    +0.292 C 
BRANCH  31  33
ATOM     32  N   UNL     1      -2.753  10.268  24.970  0.00  0.00    -0.131 NA
ATOM     33  C   UNL     1      -3.607   9.199  24.917  0.00  0.00    +0.120 A 
ATOM     34  C   UNL     1      -3.433   8.430  26.045  0.00  0.00    +0.137 A 
ATOM     35  N   UNL     1      -2.481   9.096  26.758  0.00  0.00    -0.242 N 
ATOM     36  N   UNL     1      -2.058  10.190  26.098  0.00  0.00    -0.065 NA
BRANCH  35  37
ATOM     37  C   UNL     1      -1.843   8.707  27.993  0.00  0.00    +0.240 C 
BRANCH  37  38
ATOM     38  C   UNL     1      -2.680   9.050  29.204  0.00  0.00    +0.235 C 
ATOM     39  O   UNL     1      -2.707   8.334  30.203  0.00  0.00    -0.274 OA
ATOM     40  N   UNL     1      -3.360  10.248  29.126  0.00  0.00    -0.309 N 
ATOM     41  H   UNL     1      -3.450  10.726  28.241  0.00  0.00    +0.149 HD
BRANCH  40  42
ATOM     42  C   UNL     1      -4.190  10.717  30.217  0.00  0.00    +0.146 C 
BRANCH  42  43
ATOM     43  C   UNL     1      -3.495  11.828  30.936  0.00  0.00    +0.007 A 
ATOM     44  S   UNL     1      -2.416  11.495  32.225  0.00  0.00    -0.100 S 
ATOM     45  C   UNL     1      -2.140  13.159  32.508  0.00  0.00    +0.045 A 
ATOM     46  C   UNL     1      -2.839  13.958  31.631  0.00  0.00    +0.008 A 
ATOM     47  C   UNL     1      -3.616  13.187  30.718  0.00  0.00    +0.013 A 
ENDBRANCH  42  43
ENDBRANCH  40  42
ENDBRANCH  37  38
ENDBRANCH  35  37
ENDBRANCH  31  33
ENDBRANCH  30  31
ENDBRANCH  26  30
ENDBRANCH  25  28
ENDBRANCH   1  25
TORSDOF 17
