REMARK VINA RESULT:    -5.310      3.037      4.736
REMARK INTER + INTRA:         -12.058
REMARK INTER:                 -10.017
REMARK INTRA:                  -2.041
REMARK UNBOUND:                -2.867
REMARK  Name = lig_assembled_70.pdb
REMARK  16 active torsions:
REMARK  status: ('A' for Active; 'I' for Inactive)
REMARK    1  A    between atoms: _2  and  _10
REMARK    2  A    between atoms: _5  and  _22
REMARK    3  A    between atoms: _7  and  _8
REMARK    4  A    between atoms: _7  and  _22
REMARK    5  A    between atoms: _18  and  _38
REMARK    6  A    between atoms: _20  and  _26
REMARK    7  A    between atoms: _21  and  _25
REMARK    8  A    between atoms: _25  and  _26
REMARK    9  A    between atoms: _28  and  _29
REMARK   10  A    between atoms: _30  and  _31
REMARK   11  A    between atoms: _32  and  _34
REMARK   12  A    between atoms: _34  and  _35
REMARK   13  A    between atoms: _34  and  _36
REMARK   14  A    between atoms: _36  and  _37
REMARK   15  A    between atoms: _36  and  _38
REMARK   16  A    between atoms: _39  and  _41
REMARK                            x       y       z     vdW  Elec       q    Type
REMARK                         _______ _______ _______ _____ _____    ______ ____
ROOT
ATOM      1  C   UNL     1      -4.087  10.761  22.029  0.00  0.00    +0.163 C 
ENDROOT
BRANCH   1   2
ATOM      2  O   UNL     1      -4.020   9.327  21.978  0.00  0.00    -0.388 OA
ATOM      3  H   UNL     1      -4.425   9.016  21.164  0.00  0.00    +0.210 HD
ENDBRANCH   1   2
BRANCH   1   4
ATOM      4  C   UNL     1      -3.950  11.341  20.625  0.00  0.00    +0.141 C 
BRANCH   4   7
ATOM      5  C   UNL     1      -5.620  10.221  19.190  0.00  0.00    +0.401 C 
ATOM      6  O   UNL     1      -4.971   9.178  19.086  0.00  0.00    -0.226 OA
ATOM      7  N   UNL     1      -5.216  11.285  19.884  0.00  0.00    -0.279 N 
ATOM      8  H   UNL     1      -5.814  12.099  19.902  0.00  0.00    +0.152 HD
BRANCH   5   9
ATOM      9  O   UNL     1      -6.885  10.321  18.529  0.00  0.00    -0.444 OA
BRANCH   9  10
ATOM     10  C   UNL     1      -6.747   9.902  17.168  0.00  0.00    +0.292 C 
BRANCH  10  12
ATOM     11  N   UNL     1      -6.636  12.217  16.288  0.00  0.00    -0.131 NA
ATOM     12  C   UNL     1      -6.107  10.961  16.366  0.00  0.00    +0.121 A 
ATOM     13  C   UNL     1      -4.961  10.910  15.607  0.00  0.00    +0.143 A 
ATOM     14  N   UNL     1      -4.820  12.177  15.089  0.00  0.00    -0.218 N 
ATOM     15  N   UNL     1      -5.851  12.948  15.505  0.00  0.00    -0.060 NA
BRANCH  14  16
ATOM     16  C   UNL     1      -3.785  12.679  14.272  0.00  0.00    +0.086 A 
ATOM     17  C   UNL     1      -2.977  11.815  13.552  0.00  0.00    +0.139 A 
ATOM     18  N   UNL     1      -1.994  12.231  12.712  0.00  0.00    -0.253 NA
ATOM     19  C   UNL     1      -1.799  13.555  12.564  0.00  0.00    +0.071 A 
ATOM     20  C   UNL     1      -2.563  14.508  13.269  0.00  0.00    +0.002 A 
ATOM     21  C   UNL     1      -2.331  15.883  13.089  0.00  0.00    +0.010 A 
ATOM     22  C   UNL     1      -1.357  16.320  12.195  0.00  0.00    +0.001 A 
ATOM     23  C   UNL     1      -0.607  15.386  11.490  0.00  0.00    +0.002 A 
ATOM     24  C   UNL     1      -0.829  14.019  11.686  0.00  0.00    +0.028 A 
ATOM     25  C   UNL     1      -3.560  14.050  14.139  0.00  0.00    +0.039 A 
ENDBRANCH  14  16
ENDBRANCH  10  12
ENDBRANCH   9  10
ENDBRANCH   5   9
ENDBRANCH   4   7
ENDBRANCH   1   4
BRANCH   1  26
ATOM     26  C   UNL     1      -2.978  11.331  22.931  0.00  0.00    +0.175 C 
BRANCH  26  27
ATOM     27  C   UNL     1      -3.247  11.059  24.419  0.00  0.00    +0.176 C 
ATOM     28  O   UNL     1      -3.151   9.625  24.635  0.00  0.00    -0.332 OA
ATOM     29  C   UNL     1      -3.275   9.184  26.028  0.00  0.00    +0.277 C 
ATOM     30  C   UNL     1      -4.587   9.721  26.650  0.00  0.00    +0.110 C 
ATOM     31  C   UNL     1      -4.749  11.238  26.418  0.00  0.00    +0.143 C 
ATOM     32  C   UNL     1      -4.599  11.585  24.936  0.00  0.00    +0.133 C 
BRANCH  32  33
ATOM     33  N   UNL     1      -4.668  13.041  24.738  0.00  0.00    -0.308 N 
ATOM     34  H   UNL     1      -3.917  13.604  25.112  0.00  0.00    +0.149 HD
ATOM     35  C   UNL     1      -5.659  13.667  24.098  0.00  0.00    +0.210 C 
ATOM     36  C   UNL     1      -6.801  12.784  23.563  0.00  0.00    +0.109 C 
ATOM     37  O   UNL     1      -5.683  14.888  23.934  0.00  0.00    -0.276 OA
ENDBRANCH  32  33
BRANCH  29  38
ATOM     38  C   UNL     1      -2.072   9.668  26.864  0.00  0.00    +0.414 C 
ATOM     39  O   UNL     1      -0.967   9.805  26.340  0.00  0.00    -0.240 OA
ATOM     40  O   UNL     1      -2.206   9.923  28.062  0.00  0.00    -0.240 OA
ENDBRANCH  29  38
BRANCH  31  41
ATOM     41  O   UNL     1      -6.035  11.660  26.872  0.00  0.00    -0.390 OA
ATOM     42  H   UNL     1      -6.068  12.619  26.896  0.00  0.00    +0.210 HD
ENDBRANCH  31  41
BRANCH  29  43
ATOM     43  O   UNL     1      -3.324   7.734  26.037  0.00  0.00    -0.343 OA
ATOM     44  C   UNL     1      -4.183   7.144  25.029  0.00  0.00    +0.198 C 
ENDBRANCH  29  43
ENDBRANCH  26  27
BRANCH  26  45
ATOM     45  O   UNL     1      -2.832  12.747  22.704  0.00  0.00    -0.387 OA
ATOM     46  H   UNL     1      -2.316  13.135  23.415  0.00  0.00    +0.210 HD
ENDBRANCH  26  45
ENDBRANCH   1  26
TORSDOF 14
