REMARK VINA RESULT:    -4.749      2.265      3.371
REMARK INTER + INTRA:         -13.233
REMARK INTER:                  -8.146
REMARK INTRA:                  -5.087
REMARK UNBOUND:                -3.487
REMARK  Name = lig_assembled_90.pdb
REMARK  22 active torsions:
REMARK  status: ('A' for Active; 'I' for Inactive)
REMARK    1  A    between atoms: _2  and  _13
REMARK    2  A    between atoms: _3  and  _15
REMARK    3  A    between atoms: _4  and  _17
REMARK    4  A    between atoms: _8  and  _28
REMARK    5  A    between atoms: _10  and  _11
REMARK    6  A    between atoms: _10  and  _28
REMARK    7  A    between atoms: _13  and  _14
REMARK    8  A    between atoms: _15  and  _16
REMARK    9  A    between atoms: _16  and  _17
REMARK   10  A    between atoms: _16  and  _22
REMARK   11  A    between atoms: _24  and  _44
REMARK   12  A    between atoms: _26  and  _32
REMARK   13  A    between atoms: _27  and  _31
REMARK   14  A    between atoms: _31  and  _32
REMARK   15  A    between atoms: _34  and  _35
REMARK   16  A    between atoms: _36  and  _37
REMARK   17  A    between atoms: _38  and  _40
REMARK   18  A    between atoms: _40  and  _41
REMARK   19  A    between atoms: _40  and  _42
REMARK   20  A    between atoms: _42  and  _43
REMARK   21  A    between atoms: _42  and  _44
REMARK   22  A    between atoms: _45  and  _47
REMARK                            x       y       z     vdW  Elec       q    Type
REMARK                         _______ _______ _______ _____ _____    ______ ____
ROOT
ATOM      1  C   UNL     1      -7.019   7.475  24.738  0.00  0.00    +0.401 C 
ATOM      2  O   UNL     1      -8.191   7.340  24.379  0.00  0.00    -0.226 OA
ATOM      3  N   UNL     1      -6.430   8.655  24.935  0.00  0.00    -0.279 N 
ATOM      4  H   UNL     1      -5.467   8.662  25.239  0.00  0.00    +0.152 HD
ENDROOT
BRANCH   3   5
ATOM      5  C   UNL     1      -7.104   9.944  24.735  0.00  0.00    +0.141 C 
BRANCH   5   6
ATOM      6  C   UNL     1      -7.009  10.832  25.972  0.00  0.00    +0.163 C 
BRANCH   6   7
ATOM      7  O   UNL     1      -5.940  10.383  26.819  0.00  0.00    -0.388 OA
ATOM      8  H   UNL     1      -6.052   9.449  27.010  0.00  0.00    +0.210 HD
ENDBRANCH   6   7
BRANCH   6   9
ATOM      9  C   UNL     1      -6.793  12.293  25.540  0.00  0.00    +0.175 C 
BRANCH   9  10
ATOM     10  C   UNL     1      -5.649  12.432  24.525  0.00  0.00    +0.176 C 
ATOM     11  O   UNL     1      -4.429  11.956  25.157  0.00  0.00    -0.332 OA
ATOM     12  C   UNL     1      -3.243  11.915  24.297  0.00  0.00    +0.277 C 
ATOM     13  C   UNL     1      -2.993  13.301  23.654  0.00  0.00    +0.110 C 
ATOM     14  C   UNL     1      -4.270  13.863  22.996  0.00  0.00    +0.143 C 
ATOM     15  C   UNL     1      -5.442  13.857  23.978  0.00  0.00    +0.133 C 
BRANCH  15  16
ATOM     16  N   UNL     1      -6.673  14.312  23.314  0.00  0.00    -0.308 N 
ATOM     17  H   UNL     1      -7.009  13.778  22.525  0.00  0.00    +0.149 HD
ATOM     18  C   UNL     1      -7.376  15.386  23.686  0.00  0.00    +0.210 C 
ATOM     19  C   UNL     1      -6.824  16.193  24.876  0.00  0.00    +0.109 C 
ATOM     20  O   UNL     1      -8.413  15.735  23.121  0.00  0.00    -0.276 OA
ENDBRANCH  15  16
BRANCH  12  21
ATOM     21  C   UNL     1      -3.408  10.855  23.188  0.00  0.00    +0.414 C 
ATOM     22  O   UNL     1      -3.942   9.774  23.438  0.00  0.00    -0.240 OA
ATOM     23  O   UNL     1      -3.008  11.079  22.045  0.00  0.00    -0.240 OA
ENDBRANCH  12  21
BRANCH  14  24
ATOM     24  O   UNL     1      -4.035  15.199  22.551  0.00  0.00    -0.390 OA
ATOM     25  H   UNL     1      -4.575  15.380  21.778  0.00  0.00    +0.210 HD
ENDBRANCH  14  24
BRANCH  12  26
ATOM     26  O   UNL     1      -2.099  11.581  25.125  0.00  0.00    -0.343 OA
ATOM     27  C   UNL     1      -2.418  10.896  26.362  0.00  0.00    +0.198 C 
ENDBRANCH  12  26
ENDBRANCH   9  10
BRANCH   9  28
ATOM     28  O   UNL     1      -6.537  13.119  26.693  0.00  0.00    -0.387 OA
ATOM     29  H   UNL     1      -5.736  13.629  26.550  0.00  0.00    +0.210 HD
ENDBRANCH   9  28
ENDBRANCH   6   9
ENDBRANCH   5   6
ENDBRANCH   3   5
BRANCH   1  30
ATOM     30  O   UNL     1      -6.225   6.308  24.967  0.00  0.00    -0.444 OA
BRANCH  30  31
ATOM     31  C   UNL     1      -4.947   6.470  24.346  0.00  0.00    +0.292 C 
BRANCH  31  33
ATOM     32  N   UNL     1      -2.761   7.173  25.283  0.00  0.00    -0.131 NA
ATOM     33  C   UNL     1      -3.870   6.370  25.349  0.00  0.00    +0.120 A 
ATOM     34  C   UNL     1      -3.757   5.541  26.443  0.00  0.00    +0.137 A 
ATOM     35  N   UNL     1      -2.573   5.903  27.011  0.00  0.00    -0.242 N 
ATOM     36  N   UNL     1      -1.967   6.871  26.301  0.00  0.00    -0.065 NA
BRANCH  35  37
ATOM     37  C   UNL     1      -1.910   5.311  28.148  0.00  0.00    +0.240 C 
BRANCH  37  38
ATOM     38  C   UNL     1      -2.195   6.084  29.415  0.00  0.00    +0.235 C 
ATOM     39  O   UNL     1      -2.223   5.552  30.524  0.00  0.00    -0.274 OA
ATOM     40  N   UNL     1      -2.366   7.445  29.249  0.00  0.00    -0.311 N 
ATOM     41  H   UNL     1      -2.606   7.797  28.326  0.00  0.00    +0.149 HD
BRANCH  40  42
ATOM     42  C   UNL     1      -2.729   8.287  30.381  0.00  0.00    +0.137 C 
BRANCH  42  43
ATOM     43  C   UNL     1      -3.401   9.587  29.913  0.00  0.00    +0.151 C 
BRANCH  43  44
ATOM     44  O   UNL     1      -4.329   9.272  28.867  0.00  0.00    -0.388 OA
ATOM     45  H   UNL     1      -4.128   9.829  28.088  0.00  0.00    +0.210 HD
ENDBRANCH  43  44
BRANCH  43  46
ATOM     46  C   UNL     1      -4.093  10.316  31.071  0.00  0.00    +0.162 C 
BRANCH  46  47
ATOM     47  N   UNL     1      -3.608  11.679  31.239  0.00  0.00    -0.269 N 
ATOM     48  C   UNL     1      -2.594  12.013  32.111  0.00  0.00    +0.113 A 
ATOM     49  C   UNL     1      -2.456  13.377  32.019  0.00  0.00    +0.137 A 
ATOM     50  N   UNL     1      -3.354  13.894  31.121  0.00  0.00    -0.172 NA
ATOM     51  C   UNL     1      -4.025  12.851  30.658  0.00  0.00    +0.450 A 
ATOM     52  N   UNL     1      -5.068  12.982  29.670  0.00  0.00    +0.120 N 
ATOM     53  O   UNL     1      -5.566  11.942  29.217  0.00  0.00    +0.045 OA
ATOM     54  O   UNL     1      -5.404  14.129  29.348  0.00  0.00    -0.573 OA
ENDBRANCH  46  47
ENDBRANCH  43  46
ENDBRANCH  42  43
ENDBRANCH  40  42
ENDBRANCH  37  38
ENDBRANCH  35  37
ENDBRANCH  31  33
ENDBRANCH  30  31
ENDBRANCH   1  30
TORSDOF 20
