REMARK VINA RESULT:    -4.649      2.528      6.811
REMARK INTER + INTRA:         -11.615
REMARK INTER:                  -7.108
REMARK INTRA:                  -4.507
REMARK UNBOUND:                -2.754
REMARK  Name = lig_assembled_19.pdb
REMARK  20 active torsions:
REMARK  status: ('A' for Active; 'I' for Inactive)
REMARK    1  A    between atoms: _2  and  _9
REMARK    2  A    between atoms: _4  and  _18
REMARK    3  A    between atoms: _5  and  _11
REMARK    4  A    between atoms: _6  and  _7
REMARK    5  A    between atoms: _6  and  _18
REMARK    6  A    between atoms: _9  and  _10
REMARK    7  A    between atoms: _10  and  _13
REMARK    8  A    between atoms: _11  and  _13
REMARK    9  A    between atoms: _14  and  _34
REMARK   10  A    between atoms: _16  and  _22
REMARK   11  A    between atoms: _17  and  _21
REMARK   12  A    between atoms: _21  and  _22
REMARK   13  A    between atoms: _24  and  _25
REMARK   14  A    between atoms: _26  and  _27
REMARK   15  A    between atoms: _28  and  _30
REMARK   16  A    between atoms: _30  and  _31
REMARK   17  A    between atoms: _30  and  _32
REMARK   18  A    between atoms: _32  and  _33
REMARK   19  A    between atoms: _32  and  _34
REMARK   20  A    between atoms: _35  and  _37
REMARK                            x       y       z     vdW  Elec       q    Type
REMARK                         _______ _______ _______ _____ _____    ______ ____
ROOT
ATOM      1  C   UNL     1      -2.891  11.104  24.665  0.00  0.00    +0.163 C 
ENDROOT
BRANCH   1   2
ATOM      2  O   UNL     1      -1.966  11.548  25.671  0.00  0.00    -0.388 OA
ATOM      3  H   UNL     1      -1.963  10.925  26.402  0.00  0.00    +0.210 HD
ENDBRANCH   1   2
BRANCH   1   4
ATOM      4  C   UNL     1      -4.215  10.644  25.300  0.00  0.00    +0.175 C 
BRANCH   4   5
ATOM      5  C   UNL     1      -4.006   9.514  26.318  0.00  0.00    +0.176 C 
ATOM      6  O   UNL     1      -2.941   8.657  25.823  0.00  0.00    -0.332 OA
ATOM      7  C   UNL     1      -2.528   7.575  26.721  0.00  0.00    +0.277 C 
ATOM      8  C   UNL     1      -3.748   6.712  27.125  0.00  0.00    +0.110 C 
ATOM      9  C   UNL     1      -4.919   7.582  27.629  0.00  0.00    +0.143 C 
ATOM     10  C   UNL     1      -5.263   8.677  26.619  0.00  0.00    +0.133 C 
BRANCH  10  11
ATOM     11  N   UNL     1      -6.321   9.552  27.149  0.00  0.00    -0.308 N 
ATOM     12  H   UNL     1      -6.080  10.179  27.904  0.00  0.00    +0.149 HD
ATOM     13  C   UNL     1      -7.577   9.572  26.697  0.00  0.00    +0.210 C 
ATOM     14  C   UNL     1      -7.919   8.587  25.563  0.00  0.00    +0.109 C 
ATOM     15  O   UNL     1      -8.439  10.327  27.150  0.00  0.00    -0.276 OA
ENDBRANCH  10  11
BRANCH   7  16
ATOM     16  C   UNL     1      -1.855   8.142  27.988  0.00  0.00    +0.414 C 
ATOM     17  O   UNL     1      -1.807   7.471  29.018  0.00  0.00    -0.240 OA
ATOM     18  O   UNL     1      -1.361   9.270  27.981  0.00  0.00    -0.240 OA
ENDBRANCH   7  16
BRANCH   9  19
ATOM     19  O   UNL     1      -6.069   6.763  27.846  0.00  0.00    -0.390 OA
ATOM     20  H   UNL     1      -6.786   7.062  27.283  0.00  0.00    +0.210 HD
ENDBRANCH   9  19
BRANCH   7  21
ATOM     21  O   UNL     1      -1.588   6.731  26.006  0.00  0.00    -0.343 OA
ATOM     22  C   UNL     1      -1.757   5.307  26.220  0.00  0.00    +0.198 C 
ENDBRANCH   7  21
ENDBRANCH   4   5
BRANCH   4  23
ATOM     23  O   UNL     1      -5.138  10.225  24.276  0.00  0.00    -0.387 OA
ATOM     24  H   UNL     1      -4.760  10.404  23.411  0.00  0.00    +0.210 HD
ENDBRANCH   4  23
ENDBRANCH   1   4
BRANCH   1  25
ATOM     25  C   UNL     1      -3.165  12.230  23.675  0.00  0.00    +0.141 C 
BRANCH  25  28
ATOM     26  C   UNL     1      -3.540  12.451  21.242  0.00  0.00    +0.401 C 
ATOM     27  O   UNL     1      -3.212  13.640  21.205  0.00  0.00    -0.226 OA
ATOM     28  N   UNL     1      -3.553  11.717  22.355  0.00  0.00    -0.279 N 
ATOM     29  H   UNL     1      -3.847  10.753  22.287  0.00  0.00    +0.152 HD
BRANCH  26  30
ATOM     30  O   UNL     1      -3.937  11.802  20.032  0.00  0.00    -0.444 OA
BRANCH  30  31
ATOM     31  C   UNL     1      -5.346  11.960  19.846  0.00  0.00    +0.292 C 
BRANCH  31  33
ATOM     32  N   UNL     1      -6.706  11.363  21.830  0.00  0.00    -0.131 NA
ATOM     33  C   UNL     1      -6.087  10.985  20.666  0.00  0.00    +0.120 A 
ATOM     34  C   UNL     1      -6.294   9.639  20.465  0.00  0.00    +0.137 A 
ATOM     35  N   UNL     1      -7.033   9.258  21.544  0.00  0.00    -0.248 N 
ATOM     36  N   UNL     1      -7.285  10.294  22.360  0.00  0.00    -0.065 NA
BRANCH  35  37
ATOM     37  C   UNL     1      -7.541   7.938  21.852  0.00  0.00    +0.186 C 
BRANCH  37  38
ATOM     38  C   UNL     1      -6.417   6.964  22.190  0.00  0.00    +0.255 C 
BRANCH  38  39
ATOM     39  O   UNL     1      -5.521   7.492  23.189  0.00  0.00    -0.463 OA
BRANCH  39  40
ATOM     40  C   UNL     1      -4.200   7.479  22.870  0.00  0.00    +0.304 C 
ATOM     41  O   UNL     1      -3.562   8.452  22.492  0.00  0.00    -0.251 OA
ATOM     42  C   UNL     1      -3.613   6.116  23.074  0.00  0.00    +0.136 C 
ENDBRANCH  39  40
ENDBRANCH  38  39
ENDBRANCH  37  38
ENDBRANCH  35  37
ENDBRANCH  31  33
ENDBRANCH  30  31
ENDBRANCH  26  30
ENDBRANCH  25  28
ENDBRANCH   1  25
TORSDOF 17
