REMARK VINA RESULT:    -5.143      3.679      7.484
REMARK INTER + INTRA:         -10.911
REMARK INTER:                  -7.817
REMARK INTRA:                  -3.094
REMARK UNBOUND:                -2.010
REMARK  Name = lig_assembled_49.pdb
REMARK  16 active torsions:
REMARK  status: ('A' for Active; 'I' for Inactive)
REMARK    1  A    between atoms: _2  and  _9
REMARK    2  A    between atoms: _4  and  _17
REMARK    3  A    between atoms: _6  and  _7
REMARK    4  A    between atoms: _6  and  _17
REMARK    5  A    between atoms: _13  and  _33
REMARK    6  A    between atoms: _15  and  _21
REMARK    7  A    between atoms: _16  and  _20
REMARK    8  A    between atoms: _20  and  _21
REMARK    9  A    between atoms: _23  and  _24
REMARK   10  A    between atoms: _25  and  _26
REMARK   11  A    between atoms: _27  and  _29
REMARK   12  A    between atoms: _29  and  _30
REMARK   13  A    between atoms: _29  and  _31
REMARK   14  A    between atoms: _31  and  _32
REMARK   15  A    between atoms: _31  and  _33
REMARK   16  A    between atoms: _34  and  _36
REMARK                            x       y       z     vdW  Elec       q    Type
REMARK                         _______ _______ _______ _____ _____    ______ ____
ROOT
ATOM      1  C   UNL     1      -4.532  13.035  23.326  0.00  0.00    +0.175 C 
ENDROOT
BRANCH   1   2
ATOM      2  C   UNL     1      -5.691  13.890  23.860  0.00  0.00    +0.176 C 
ATOM      3  O   UNL     1      -5.444  15.269  23.472  0.00  0.00    -0.332 OA
ATOM      4  C   UNL     1      -6.507  16.222  23.808  0.00  0.00    +0.277 C 
ATOM      5  C   UNL     1      -6.836  16.154  25.319  0.00  0.00    +0.110 C 
ATOM      6  C   UNL     1      -7.075  14.703  25.786  0.00  0.00    +0.143 C 
ATOM      7  C   UNL     1      -5.910  13.798  25.382  0.00  0.00    +0.133 C 
BRANCH   7   8
ATOM      8  N   UNL     1      -6.189  12.402  25.755  0.00  0.00    -0.308 N 
ATOM      9  H   UNL     1      -6.908  11.911  25.242  0.00  0.00    +0.149 HD
ATOM     10  C   UNL     1      -5.554  11.742  26.727  0.00  0.00    +0.210 C 
ATOM     11  C   UNL     1      -4.482  12.526  27.508  0.00  0.00    +0.109 C 
ATOM     12  O   UNL     1      -5.798  10.568  27.008  0.00  0.00    -0.276 OA
ENDBRANCH   7   8
BRANCH   4  13
ATOM     13  C   UNL     1      -7.782  15.930  22.989  0.00  0.00    +0.414 C 
ATOM     14  O   UNL     1      -7.735  15.181  22.014  0.00  0.00    -0.240 OA
ATOM     15  O   UNL     1      -8.856  16.444  23.303  0.00  0.00    -0.240 OA
ENDBRANCH   4  13
BRANCH   6  16
ATOM     16  O   UNL     1      -7.224  14.672  27.206  0.00  0.00    -0.390 OA
ATOM     17  H   UNL     1      -6.519  15.179  27.614  0.00  0.00    +0.210 HD
ENDBRANCH   6  16
BRANCH   4  18
ATOM     18  O   UNL     1      -6.026  17.556  23.503  0.00  0.00    -0.343 OA
ATOM     19  C   UNL     1      -5.432  17.708  22.189  0.00  0.00    +0.198 C 
ENDBRANCH   4  18
ENDBRANCH   1   2
BRANCH   1  20
ATOM     20  O   UNL     1      -3.380  13.169  24.181  0.00  0.00    -0.387 OA
ATOM     21  H   UNL     1      -3.020  14.055  24.097  0.00  0.00    +0.210 HD
ENDBRANCH   1  20
BRANCH   1  22
ATOM     22  C   UNL     1      -4.163  13.400  21.878  0.00  0.00    +0.163 C 
BRANCH  22  23
ATOM     23  O   UNL     1      -5.287  13.221  21.000  0.00  0.00    -0.388 OA
ATOM     24  H   UNL     1      -5.865  12.542  21.354  0.00  0.00    +0.210 HD
ENDBRANCH  22  23
BRANCH  22  25
ATOM     25  C   UNL     1      -2.996  12.534  21.415  0.00  0.00    +0.141 C 
BRANCH  25  28
ATOM     26  C   UNL     1      -3.584  10.148  21.676  0.00  0.00    +0.401 C 
ATOM     27  O   UNL     1      -4.262  10.106  20.647  0.00  0.00    -0.226 OA
ATOM     28  N   UNL     1      -2.962  11.243  22.114  0.00  0.00    -0.279 N 
ATOM     29  H   UNL     1      -2.437  11.182  22.975  0.00  0.00    +0.152 HD
BRANCH  26  30
ATOM     30  O   UNL     1      -3.447   8.965  22.466  0.00  0.00    -0.444 OA
BRANCH  30  31
ATOM     31  C   UNL     1      -4.307   9.048  23.606  0.00  0.00    +0.292 C 
BRANCH  31  33
ATOM     32  N   UNL     1      -2.589  10.274  24.895  0.00  0.00    -0.131 NA
ATOM     33  C   UNL     1      -3.517   9.269  24.831  0.00  0.00    +0.120 A 
ATOM     34  C   UNL     1      -3.530   8.592  26.030  0.00  0.00    +0.137 A 
ATOM     35  N   UNL     1      -2.584   9.228  26.778  0.00  0.00    -0.248 N 
ATOM     36  N   UNL     1      -2.024  10.240  26.093  0.00  0.00    -0.065 NA
BRANCH  35  37
ATOM     37  C   UNL     1      -2.161   8.912  28.121  0.00  0.00    +0.109 C 
ATOM     38  C   UNL     1      -3.025   9.551  29.209  0.00  0.00    +0.027 C 
ATOM     39  C   UNL     1      -2.671   8.739  30.443  0.00  0.00    +0.002 C 
ATOM     40  C   UNL     1      -2.556   7.309  29.930  0.00  0.00    +0.002 C 
ATOM     41  C   UNL     1      -2.164   7.414  28.454  0.00  0.00    +0.027 C 
ENDBRANCH  35  37
ENDBRANCH  31  33
ENDBRANCH  30  31
ENDBRANCH  26  30
ENDBRANCH  25  28
ENDBRANCH  22  25
ENDBRANCH   1  22
TORSDOF 14
