REMARK VINA RESULT:    -4.651      7.809     13.579
REMARK INTER + INTRA:         -10.047
REMARK INTER:                  -8.050
REMARK INTRA:                  -1.997
REMARK UNBOUND:                -1.997
REMARK  Name = lig_assembled_57.pdb
REMARK  17 active torsions:
REMARK  status: ('A' for Active; 'I' for Inactive)
REMARK    1  A    between atoms: _2  and  _10
REMARK    2  A    between atoms: _3  and  _13
REMARK    3  A    between atoms: _5  and  _19
REMARK    4  A    between atoms: _7  and  _8
REMARK    5  A    between atoms: _7  and  _19
REMARK    6  A    between atoms: _15  and  _35
REMARK    7  A    between atoms: _17  and  _23
REMARK    8  A    between atoms: _18  and  _22
REMARK    9  A    between atoms: _22  and  _23
REMARK   10  A    between atoms: _25  and  _26
REMARK   11  A    between atoms: _27  and  _28
REMARK   12  A    between atoms: _29  and  _31
REMARK   13  A    between atoms: _31  and  _32
REMARK   14  A    between atoms: _31  and  _33
REMARK   15  A    between atoms: _33  and  _34
REMARK   16  A    between atoms: _33  and  _35
REMARK   17  A    between atoms: _36  and  _38
REMARK                            x       y       z     vdW  Elec       q    Type
REMARK                         _______ _______ _______ _____ _____    ______ ____
ROOT
ATOM      1  C   UNL     1      -6.091  10.944  16.271  0.00  0.00    +0.163 C 
ENDROOT
BRANCH   1   2
ATOM      2  O   UNL     1      -5.189  12.033  16.018  0.00  0.00    -0.388 OA
ATOM      3  H   UNL     1      -5.377  12.412  15.157  0.00  0.00    +0.210 HD
ENDBRANCH   1   2
BRANCH   1   4
ATOM      4  C   UNL     1      -6.556  10.977  17.723  0.00  0.00    +0.141 C 
BRANCH   4   7
ATOM      5  C   UNL     1      -4.767  10.668  19.399  0.00  0.00    +0.401 C 
ATOM      6  O   UNL     1      -4.898   9.442  19.450  0.00  0.00    -0.226 OA
ATOM      7  N   UNL     1      -5.504  11.464  18.623  0.00  0.00    -0.279 N 
ATOM      8  H   UNL     1      -5.329  12.458  18.658  0.00  0.00    +0.152 HD
BRANCH   5   9
ATOM      9  O   UNL     1      -3.774  11.295  20.214  0.00  0.00    -0.444 OA
BRANCH   9  10
ATOM     10  C   UNL     1      -4.409  11.991  21.290  0.00  0.00    +0.292 C 
BRANCH  10  12
ATOM     11  N   UNL     1      -3.417  10.221  22.697  0.00  0.00    -0.131 NA
ATOM     12  C   UNL     1      -3.906  11.491  22.582  0.00  0.00    +0.120 A 
ATOM     13  C   UNL     1      -3.802  12.126  23.801  0.00  0.00    +0.137 A 
ATOM     14  N   UNL     1      -3.162  11.221  24.594  0.00  0.00    -0.248 N 
ATOM     15  N   UNL     1      -3.001  10.051  23.941  0.00  0.00    -0.065 NA
BRANCH  14  16
ATOM     16  C   UNL     1      -2.603  11.349  25.936  0.00  0.00    +0.111 C 
ATOM     17  C   UNL     1      -3.582  12.083  26.865  0.00  0.00    +0.042 C 
ATOM     18  C   UNL     1      -4.744  11.168  27.248  0.00  0.00    +0.086 C 
ATOM     19  N   UNL     1      -4.307   9.942  27.924  0.00  0.00    -0.305 NA
ATOM     20  C   UNL     1      -3.311   9.199  27.151  0.00  0.00    +0.086 C 
ATOM     21  C   UNL     1      -3.890  10.186  29.301  0.00  0.00    +0.104 C 
ATOM     22  C   UNL     1      -2.148  10.044  26.610  0.00  0.00    +0.042 C 
ENDBRANCH  14  16
ENDBRANCH  10  12
ENDBRANCH   9  10
ENDBRANCH   5   9
ENDBRANCH   4   7
ENDBRANCH   1   4
BRANCH   1  23
ATOM     23  C   UNL     1      -5.418   9.592  15.977  0.00  0.00    +0.175 C 
BRANCH  23  24
ATOM     24  C   UNL     1      -4.326   9.711  14.904  0.00  0.00    +0.176 C 
ATOM     25  O   UNL     1      -4.915  10.345  13.735  0.00  0.00    -0.332 OA
ATOM     26  C   UNL     1      -3.988  10.639  12.639  0.00  0.00    +0.277 C 
ATOM     27  C   UNL     1      -3.230   9.357  12.213  0.00  0.00    +0.110 C 
ATOM     28  C   UNL     1      -2.612   8.631  13.427  0.00  0.00    +0.143 C 
ATOM     29  C   UNL     1      -3.664   8.378  14.508  0.00  0.00    +0.133 C 
BRANCH  29  30
ATOM     30  N   UNL     1      -3.046   7.765  15.694  0.00  0.00    -0.308 N 
ATOM     31  H   UNL     1      -2.375   8.314  16.213  0.00  0.00    +0.149 HD
ATOM     32  C   UNL     1      -3.313   6.531  16.129  0.00  0.00    +0.210 C 
ATOM     33  C   UNL     1      -4.321   5.711  15.300  0.00  0.00    +0.109 C 
ATOM     34  O   UNL     1      -2.792   6.048  17.134  0.00  0.00    -0.276 OA
ENDBRANCH  29  30
BRANCH  26  35
ATOM     35  C   UNL     1      -2.973  11.723  13.056  0.00  0.00    +0.414 C 
ATOM     36  O   UNL     1      -1.849  11.747  12.556  0.00  0.00    -0.240 OA
ATOM     37  O   UNL     1      -3.278  12.575  13.892  0.00  0.00    -0.240 OA
ENDBRANCH  26  35
BRANCH  28  38
ATOM     38  O   UNL     1      -2.056   7.384  13.010  0.00  0.00    -0.390 OA
ATOM     39  H   UNL     1      -1.725   6.908  13.776  0.00  0.00    +0.210 HD
ENDBRANCH  28  38
BRANCH  26  40
ATOM     40  O   UNL     1      -4.765  11.107  11.507  0.00  0.00    -0.343 OA
ATOM     41  C   UNL     1      -5.311  10.061  10.663  0.00  0.00    +0.198 C 
ENDBRANCH  26  40
ENDBRANCH  23  24
BRANCH  23  42
ATOM     42  O   UNL     1      -6.405   8.622  15.576  0.00  0.00    -0.387 OA
ATOM     43  H   UNL     1      -5.982   7.770  15.444  0.00  0.00    +0.210 HD
ENDBRANCH  23  42
ENDBRANCH   1  23
TORSDOF 14
