REMARK VINA RESULT:    -4.678      1.388      1.598
REMARK INTER + INTRA:         -10.383
REMARK INTER:                  -7.687
REMARK INTRA:                  -2.696
REMARK UNBOUND:                -2.287
REMARK  Name = lig_assembled_52.pdb
REMARK  16 active torsions:
REMARK  status: ('A' for Active; 'I' for Inactive)
REMARK    1  A    between atoms: _2  and  _10
REMARK    2  A    between atoms: _5  and  _18
REMARK    3  A    between atoms: _7  and  _8
REMARK    4  A    between atoms: _7  and  _18
REMARK    5  A    between atoms: _14  and  _34
REMARK    6  A    between atoms: _16  and  _22
REMARK    7  A    between atoms: _17  and  _21
REMARK    8  A    between atoms: _21  and  _22
REMARK    9  A    between atoms: _24  and  _25
REMARK   10  A    between atoms: _26  and  _27
REMARK   11  A    between atoms: _28  and  _30
REMARK   12  A    between atoms: _30  and  _31
REMARK   13  A    between atoms: _30  and  _32
REMARK   14  A    between atoms: _32  and  _33
REMARK   15  A    between atoms: _32  and  _34
REMARK   16  A    between atoms: _35  and  _37
REMARK                            x       y       z     vdW  Elec       q    Type
REMARK                         _______ _______ _______ _____ _____    ______ ____
ROOT
ATOM      1  C   UNL     1      -3.008  11.144  26.198  0.00  0.00    +0.163 C 
ENDROOT
BRANCH   1   2
ATOM      2  O   UNL     1      -2.025  11.807  25.387  0.00  0.00    -0.388 OA
ATOM      3  H   UNL     1      -2.452  12.199  24.621  0.00  0.00    +0.210 HD
ENDBRANCH   1   2
BRANCH   1   4
ATOM      4  C   UNL     1      -2.321  10.330  27.290  0.00  0.00    +0.141 C 
BRANCH   4   7
ATOM      5  C   UNL     1      -3.527   9.885  29.400  0.00  0.00    +0.401 C 
ATOM      6  O   UNL     1      -3.883   8.752  29.067  0.00  0.00    -0.226 OA
ATOM      7  N   UNL     1      -2.800  10.694  28.628  0.00  0.00    -0.279 N 
ATOM      8  H   UNL     1      -2.566  11.610  28.985  0.00  0.00    +0.152 HD
BRANCH   5   9
ATOM      9  O   UNL     1      -3.910  10.384  30.684  0.00  0.00    -0.444 OA
BRANCH   9  10
ATOM     10  C   UNL     1      -2.741  10.757  31.419  0.00  0.00    +0.292 C 
BRANCH  10  12
ATOM     11  N   UNL     1      -1.753  12.792  32.418  0.00  0.00    -0.131 NA
ATOM     12  C   UNL     1      -2.758  12.203  31.707  0.00  0.00    +0.121 A 
ATOM     13  C   UNL     1      -3.680  13.163  31.356  0.00  0.00    +0.143 A 
ATOM     14  N   UNL     1      -3.180  14.340  31.864  0.00  0.00    -0.218 N 
ATOM     15  N   UNL     1      -2.018  14.089  32.512  0.00  0.00    -0.060 NA
BRANCH  14  16
ATOM     16  C   UNL     1      -3.713  15.642  31.760  0.00  0.00    +0.085 A 
ATOM     17  C   UNL     1      -4.406  16.070  30.624  0.00  0.00    +0.031 A 
ATOM     18  C   UNL     1      -4.890  17.376  30.573  0.00  0.00    +0.022 A 
ATOM     19  C   UNL     1      -4.666  18.206  31.658  0.00  0.00    +0.111 A 
ATOM     20  N   UNL     1      -4.008  17.820  32.772  0.00  0.00    -0.261 NA
ATOM     21  C   UNL     1      -3.544  16.547  32.802  0.00  0.00    +0.138 A 
ENDBRANCH  14  16
ENDBRANCH  10  12
ENDBRANCH   9  10
ENDBRANCH   5   9
ENDBRANCH   4   7
ENDBRANCH   1   4
BRANCH   1  22
ATOM     22  C   UNL     1      -3.891  10.217  25.345  0.00  0.00    +0.175 C 
BRANCH  22  23
ATOM     23  C   UNL     1      -4.969  10.995  24.575  0.00  0.00    +0.176 C 
ATOM     24  O   UNL     1      -4.315  11.719  23.497  0.00  0.00    -0.332 OA
ATOM     25  C   UNL     1      -5.207  12.439  22.584  0.00  0.00    +0.277 C 
ATOM     26  C   UNL     1      -6.130  13.399  23.375  0.00  0.00    +0.110 C 
ATOM     27  C   UNL     1      -6.824  12.682  24.552  0.00  0.00    +0.143 C 
ATOM     28  C   UNL     1      -5.803  11.963  25.435  0.00  0.00    +0.133 C 
BRANCH  28  29
ATOM     29  N   UNL     1      -6.483  11.211  26.502  0.00  0.00    -0.308 N 
ATOM     30  H   UNL     1      -7.029  10.404  26.235  0.00  0.00    +0.149 HD
ATOM     31  C   UNL     1      -6.427  11.527  27.798  0.00  0.00    +0.210 C 
ATOM     32  C   UNL     1      -5.609  12.779  28.168  0.00  0.00    +0.109 C 
ATOM     33  O   UNL     1      -6.995  10.871  28.672  0.00  0.00    -0.276 OA
ENDBRANCH  28  29
BRANCH  25  34
ATOM     34  C   UNL     1      -6.068  11.453  21.768  0.00  0.00    +0.414 C 
ATOM     35  O   UNL     1      -7.193  11.778  21.389  0.00  0.00    -0.240 OA
ATOM     36  O   UNL     1      -5.638  10.333  21.489  0.00  0.00    -0.240 OA
ENDBRANCH  25  34
BRANCH  27  37
ATOM     37  O   UNL     1      -7.541  13.632  25.340  0.00  0.00    -0.390 OA
ATOM     38  H   UNL     1      -6.927  14.114  25.899  0.00  0.00    +0.210 HD
ENDBRANCH  27  37
BRANCH  25  39
ATOM     39  O   UNL     1      -4.387  13.230  21.686  0.00  0.00    -0.343 OA
ATOM     40  C   UNL     1      -4.122  14.585  22.131  0.00  0.00    +0.198 C 
ENDBRANCH  25  39
ENDBRANCH  22  23
BRANCH  22  41
ATOM     41  O   UNL     1      -4.502   9.210  26.175  0.00  0.00    -0.387 OA
ATOM     42  H   UNL     1      -3.820   8.726  26.647  0.00  0.00    +0.210 HD
ENDBRANCH  22  41
ENDBRANCH   1  22
TORSDOF 14
