REMARK VINA RESULT:    -4.590      2.781      6.737
REMARK INTER + INTRA:         -11.060
REMARK INTER:                  -7.392
REMARK INTRA:                  -3.668
REMARK UNBOUND:                -2.848
REMARK  Name = lig_assembled_63.pdb
REMARK  17 active torsions:
REMARK  status: ('A' for Active; 'I' for Inactive)
REMARK    1  A    between atoms: _2  and  _11
REMARK    2  A    between atoms: _6  and  _20
REMARK    3  A    between atoms: _7  and  _15
REMARK    4  A    between atoms: _8  and  _9
REMARK    5  A    between atoms: _8  and  _20
REMARK    6  A    between atoms: _16  and  _36
REMARK    7  A    between atoms: _18  and  _24
REMARK    8  A    between atoms: _19  and  _23
REMARK    9  A    between atoms: _23  and  _24
REMARK   10  A    between atoms: _26  and  _27
REMARK   11  A    between atoms: _28  and  _29
REMARK   12  A    between atoms: _30  and  _32
REMARK   13  A    between atoms: _32  and  _33
REMARK   14  A    between atoms: _32  and  _34
REMARK   15  A    between atoms: _34  and  _35
REMARK   16  A    between atoms: _34  and  _36
REMARK   17  A    between atoms: _37  and  _39
REMARK                            x       y       z     vdW  Elec       q    Type
REMARK                         _______ _______ _______ _____ _____    ______ ____
ROOT
ATOM      1  C   UNL     1      -4.449  10.557  26.198  0.00  0.00    +0.163 C 
ENDROOT
BRANCH   1   2
ATOM      2  O   UNL     1      -5.091   9.915  25.084  0.00  0.00    -0.388 OA
ATOM      3  H   UNL     1      -5.936   9.557  25.363  0.00  0.00    +0.210 HD
ENDBRANCH   1   2
BRANCH   1   4
ATOM      4  C   UNL     1      -4.482  12.071  26.017  0.00  0.00    +0.141 C 
BRANCH   4   7
ATOM      5  C   UNL     1      -3.392  12.803  23.924  0.00  0.00    +0.401 C 
ATOM      6  O   UNL     1      -2.263  12.853  24.419  0.00  0.00    -0.226 OA
ATOM      7  N   UNL     1      -4.487  12.453  24.600  0.00  0.00    -0.279 N 
ATOM      8  H   UNL     1      -5.370  12.451  24.109  0.00  0.00    +0.152 HD
BRANCH   5   9
ATOM      9  O   UNL     1      -3.561  13.140  22.545  0.00  0.00    -0.444 OA
BRANCH   9  10
ATOM     10  C   UNL     1      -2.913  12.159  21.730  0.00  0.00    +0.292 C 
BRANCH  10  12
ATOM     11  N   UNL     1      -3.096   9.883  22.676  0.00  0.00    -0.131 NA
ATOM     12  C   UNL     1      -3.591  10.856  21.855  0.00  0.00    +0.121 A 
ATOM     13  C   UNL     1      -4.723  10.382  21.236  0.00  0.00    +0.145 A 
ATOM     14  N   UNL     1      -4.862   9.085  21.687  0.00  0.00    -0.200 N 
ATOM     15  N   UNL     1      -3.878   8.817  22.573  0.00  0.00    -0.059 NA
BRANCH  14  16
ATOM     16  C   UNL     1      -5.838   8.138  21.258  0.00  0.00    +0.173 A 
ATOM     17  C   UNL     1      -7.041   7.941  21.942  0.00  0.00    +0.096 A 
ATOM     18  C   UNL     1      -7.887   6.914  21.489  0.00  0.00    +0.024 A 
ATOM     19  C   UNL     1      -7.538   6.147  20.381  0.00  0.00    +0.021 A 
ATOM     20  C   UNL     1      -6.350   6.435  19.741  0.00  0.00    +0.113 A 
ATOM     21  N   UNL     1      -5.500   7.400  20.153  0.00  0.00    -0.235 NA
BRANCH  17  22
ATOM     22  C   UNL     1      -7.499   8.711  23.060  0.00  0.00    +0.103 C 
ATOM     23  N   UNL     1      -7.848   9.251  24.028  0.00  0.00    -0.191 NA
ENDBRANCH  17  22
ENDBRANCH  14  16
ENDBRANCH  10  12
ENDBRANCH   9  10
ENDBRANCH   5   9
ENDBRANCH   4   7
ENDBRANCH   1   4
BRANCH   1  24
ATOM     24  C   UNL     1      -2.991  10.087  26.339  0.00  0.00    +0.175 C 
BRANCH  24  25
ATOM     25  C   UNL     1      -2.886   8.740  27.068  0.00  0.00    +0.176 C 
ATOM     26  O   UNL     1      -3.435   7.715  26.195  0.00  0.00    -0.332 OA
ATOM     27  C   UNL     1      -3.322   6.338  26.684  0.00  0.00    +0.277 C 
ATOM     28  C   UNL     1      -3.947   6.213  28.096  0.00  0.00    +0.110 C 
ATOM     29  C   UNL     1      -3.417   7.302  29.052  0.00  0.00    +0.143 C 
ATOM     30  C   UNL     1      -3.581   8.694  28.442  0.00  0.00    +0.133 C 
BRANCH  30  31
ATOM     31  N   UNL     1      -2.994   9.716  29.323  0.00  0.00    -0.308 N 
ATOM     32  H   UNL     1      -1.989   9.733  29.421  0.00  0.00    +0.149 HD
ATOM     33  C   UNL     1      -3.703  10.621  30.003  0.00  0.00    +0.210 C 
ATOM     34  C   UNL     1      -5.235  10.551  29.853  0.00  0.00    +0.109 C 
ATOM     35  O   UNL     1      -3.184  11.474  30.723  0.00  0.00    -0.276 OA
ENDBRANCH  30  31
BRANCH  27  36
ATOM     36  C   UNL     1      -1.845   5.894  26.733  0.00  0.00    +0.414 C 
ATOM     37  O   UNL     1      -1.102   6.108  25.777  0.00  0.00    -0.240 OA
ATOM     38  O   UNL     1      -1.398   5.322  27.728  0.00  0.00    -0.240 OA
ENDBRANCH  27  36
BRANCH  27  39
ATOM     39  O   UNL     1      -4.061   5.478  25.779  0.00  0.00    -0.343 OA
ATOM     40  C   UNL     1      -4.600   6.141  24.608  0.00  0.00    +0.198 C 
ENDBRANCH  27  39
BRANCH  29  41
ATOM     41  O   UNL     1      -4.128   7.244  30.289  0.00  0.00    -0.390 OA
ATOM     42  H   UNL     1      -3.964   6.398  30.713  0.00  0.00    +0.210 HD
ENDBRANCH  29  41
ENDBRANCH  24  25
BRANCH  24  43
ATOM     43  O   UNL     1      -2.212  11.086  27.027  0.00  0.00    -0.387 OA
ATOM     44  H   UNL     1      -1.372  11.203  26.577  0.00  0.00    +0.210 HD
ENDBRANCH  24  43
ENDBRANCH   1  24
TORSDOF 15
