REMARK VINA RESULT:    -5.495      2.205      4.438
REMARK INTER + INTRA:         -14.671
REMARK INTER:                 -10.777
REMARK INTRA:                  -3.894
REMARK UNBOUND:                -3.392
REMARK  Name = lig_assembled_47.pdb
REMARK  22 active torsions:
REMARK  status: ('A' for Active; 'I' for Inactive)
REMARK    1  A    between atoms: _2  and  _9
REMARK    2  A    between atoms: _4  and  _30
REMARK    3  A    between atoms: _6  and  _7
REMARK    4  A    between atoms: _6  and  _30
REMARK    5  A    between atoms: _9  and  _10
REMARK    6  A    between atoms: _10  and  _11
REMARK    7  A    between atoms: _10  and  _12
REMARK    8  A    between atoms: _11  and  _24
REMARK    9  A    between atoms: _12  and  _13
REMARK   10  A    between atoms: _12  and  _19
REMARK   11  A    between atoms: _26  and  _46
REMARK   12  A    between atoms: _28  and  _34
REMARK   13  A    between atoms: _29  and  _33
REMARK   14  A    between atoms: _33  and  _34
REMARK   15  A    between atoms: _36  and  _37
REMARK   16  A    between atoms: _38  and  _39
REMARK   17  A    between atoms: _40  and  _42
REMARK   18  A    between atoms: _42  and  _43
REMARK   19  A    between atoms: _42  and  _44
REMARK   20  A    between atoms: _44  and  _45
REMARK   21  A    between atoms: _44  and  _46
REMARK   22  A    between atoms: _47  and  _49
REMARK                            x       y       z     vdW  Elec       q    Type
REMARK                         _______ _______ _______ _____ _____    ______ ____
ROOT
ATOM      1  C   UNL     1      -2.493  10.123  26.037  0.00  0.00    +0.401 C 
ATOM      2  O   UNL     1      -1.945  11.169  26.394  0.00  0.00    -0.226 OA
ATOM      3  N   UNL     1      -2.657   9.061  26.826  0.00  0.00    -0.279 N 
ATOM      4  H   UNL     1      -3.128   8.252  26.445  0.00  0.00    +0.152 HD
ENDROOT
BRANCH   3   5
ATOM      5  C   UNL     1      -2.193   9.000  28.217  0.00  0.00    +0.141 C 
BRANCH   5   6
ATOM      6  C   UNL     1      -3.324   8.655  29.180  0.00  0.00    +0.163 C 
BRANCH   6   7
ATOM      7  O   UNL     1      -2.819   8.573  30.523  0.00  0.00    -0.388 OA
ATOM      8  H   UNL     1      -2.699   7.652  30.765  0.00  0.00    +0.210 HD
ENDBRANCH   6   7
BRANCH   6   9
ATOM      9  C   UNL     1      -4.432   9.718  29.073  0.00  0.00    +0.175 C 
BRANCH   9  10
ATOM     10  C   UNL     1      -4.080  10.999  29.843  0.00  0.00    +0.176 C 
ATOM     11  O   UNL     1      -4.430  10.792  31.240  0.00  0.00    -0.332 OA
ATOM     12  C   UNL     1      -4.065  11.880  32.152  0.00  0.00    +0.277 C 
ATOM     13  C   UNL     1      -4.657  13.222  31.658  0.00  0.00    +0.110 C 
ATOM     14  C   UNL     1      -4.338  13.471  30.169  0.00  0.00    +0.143 C 
ATOM     15  C   UNL     1      -4.756  12.276  29.311  0.00  0.00    +0.133 C 
BRANCH  15  16
ATOM     16  N   UNL     1      -4.368  12.489  27.908  0.00  0.00    -0.308 N 
ATOM     17  H   UNL     1      -3.383  12.576  27.698  0.00  0.00    +0.149 HD
ATOM     18  C   UNL     1      -5.232  12.575  26.893  0.00  0.00    +0.210 C 
ATOM     19  C   UNL     1      -6.727  12.466  27.249  0.00  0.00    +0.109 C 
ATOM     20  O   UNL     1      -4.878  12.739  25.725  0.00  0.00    -0.276 OA
ENDBRANCH  15  16
BRANCH  12  21
ATOM     21  C   UNL     1      -2.532  12.004  32.270  0.00  0.00    +0.414 C 
ATOM     22  O   UNL     1      -1.822  11.000  32.220  0.00  0.00    -0.240 OA
ATOM     23  O   UNL     1      -2.004  13.108  32.414  0.00  0.00    -0.240 OA
ENDBRANCH  12  21
BRANCH  12  24
ATOM     24  O   UNL     1      -4.632  11.582  33.455  0.00  0.00    -0.343 OA
ATOM     25  C   UNL     1      -5.255  12.707  34.123  0.00  0.00    +0.198 C 
ENDBRANCH  12  24
BRANCH  14  26
ATOM     26  O   UNL     1      -5.027  14.638  29.718  0.00  0.00    -0.390 OA
ATOM     27  H   UNL     1      -5.905  14.396  29.416  0.00  0.00    +0.210 HD
ENDBRANCH  14  26
ENDBRANCH   9  10
BRANCH   9  28
ATOM     28  O   UNL     1      -5.682   9.180  29.548  0.00  0.00    -0.387 OA
ATOM     29  H   UNL     1      -6.370   9.350  28.901  0.00  0.00    +0.210 HD
ENDBRANCH   9  28
ENDBRANCH   6   9
ENDBRANCH   5   6
ENDBRANCH   3   5
BRANCH   1  30
ATOM     30  O   UNL     1      -2.994  10.023  24.702  0.00  0.00    -0.444 OA
BRANCH  30  31
ATOM     31  C   UNL     1      -3.902   8.921  24.614  0.00  0.00    +0.292 C 
BRANCH  31  33
ATOM     32  N   UNL     1      -4.282   8.310  22.237  0.00  0.00    -0.131 NA
ATOM     33  C   UNL     1      -4.687   8.979  23.364  0.00  0.00    +0.120 A 
ATOM     34  C   UNL     1      -5.848   9.664  23.083  0.00  0.00    +0.137 A 
ATOM     35  N   UNL     1      -6.071   9.412  21.761  0.00  0.00    -0.251 N 
ATOM     36  N   UNL     1      -5.140   8.582  21.262  0.00  0.00    -0.065 NA
BRANCH  35  37
ATOM     37  C   UNL     1      -7.046  10.038  20.880  0.00  0.00    +0.160 C 
BRANCH  37  38
ATOM     38  C   UNL     1      -6.598  10.124  19.418  0.00  0.00    +0.131 C 
BRANCH  38  39
ATOM     39  C   UNL     1      -7.834   9.939  18.549  0.00  0.00    +0.311 C 
ATOM     40  O   UNL     1      -8.291   8.841  18.270  0.00  0.00    -0.251 OA
BRANCH  39  41
ATOM     41  O   UNL     1      -8.488  11.059  18.175  0.00  0.00    -0.480 OA
ATOM     42  H   UNL     1      -9.239  10.980  17.564  0.00  0.00    +0.295 HD
ENDBRANCH  39  41
ENDBRANCH  38  39
BRANCH  38  43
ATOM     43  C   UNL     1      -5.816  11.425  19.051  0.00  0.00    +0.064 C 
BRANCH  43  44
ATOM     44  C   UNL     1      -5.067  12.097  20.203  0.00  0.00    -0.039 A 
ATOM     45  C   UNL     1      -5.684  13.138  20.925  0.00  0.00    +0.004 A 
ATOM     46  C   UNL     1      -5.027  13.773  21.984  0.00  0.00    +0.000 A 
ATOM     47  C   UNL     1      -3.734  13.394  22.331  0.00  0.00    +0.000 A 
ATOM     48  C   UNL     1      -3.100  12.381  21.618  0.00  0.00    +0.000 A 
ATOM     49  C   UNL     1      -3.763  11.732  20.571  0.00  0.00    +0.004 A 
ENDBRANCH  43  44
BRANCH  43  50
ATOM     50  C   UNL     1      -4.930  11.183  17.822  0.00  0.00    -0.039 A 
ATOM     51  C   UNL     1      -4.525  12.258  17.015  0.00  0.00    +0.004 A 
ATOM     52  C   UNL     1      -3.866  12.028  15.803  0.00  0.00    +0.000 A 
ATOM     53  C   UNL     1      -3.579  10.727  15.396  0.00  0.00    +0.000 A 
ATOM     54  C   UNL     1      -3.939   9.654  16.201  0.00  0.00    +0.000 A 
ATOM     55  C   UNL     1      -4.609   9.880  17.403  0.00  0.00    +0.004 A 
ENDBRANCH  43  50
ENDBRANCH  38  43
ENDBRANCH  37  38
ENDBRANCH  35  37
ENDBRANCH  31  33
ENDBRANCH  30  31
ENDBRANCH   1  30
TORSDOF 20
