REMARK VINA RESULT:    -4.294      3.805      7.452
REMARK INTER + INTRA:          -9.939
REMARK INTER:                  -7.431
REMARK INTRA:                  -2.508
REMARK UNBOUND:                -2.508
REMARK  Name = lig_assembled_48.pdb
REMARK  16 active torsions:
REMARK  status: ('A' for Active; 'I' for Inactive)
REMARK    1  A    between atoms: _2  and  _9
REMARK    2  A    between atoms: _4  and  _18
REMARK    3  A    between atoms: _6  and  _7
REMARK    4  A    between atoms: _6  and  _18
REMARK    5  A    between atoms: _14  and  _34
REMARK    6  A    between atoms: _16  and  _22
REMARK    7  A    between atoms: _17  and  _21
REMARK    8  A    between atoms: _21  and  _22
REMARK    9  A    between atoms: _24  and  _25
REMARK   10  A    between atoms: _26  and  _27
REMARK   11  A    between atoms: _28  and  _30
REMARK   12  A    between atoms: _30  and  _31
REMARK   13  A    between atoms: _30  and  _32
REMARK   14  A    between atoms: _32  and  _33
REMARK   15  A    between atoms: _32  and  _34
REMARK   16  A    between atoms: _35  and  _37
REMARK                            x       y       z     vdW  Elec       q    Type
REMARK                         _______ _______ _______ _____ _____    ______ ____
ROOT
ATOM      1  C   UNL     1      -6.050   8.760  21.897  0.00  0.00    +0.163 C 
ENDROOT
BRANCH   1   2
ATOM      2  O   UNL     1      -6.841   8.534  20.719  0.00  0.00    -0.388 OA
ATOM      3  H   UNL     1      -7.189   7.640  20.733  0.00  0.00    +0.210 HD
ENDBRANCH   1   2
BRANCH   1   4
ATOM      4  C   UNL     1      -6.173   7.570  22.843  0.00  0.00    +0.141 C 
BRANCH   4   7
ATOM      5  C   UNL     1      -3.923   6.634  23.255  0.00  0.00    +0.401 C 
ATOM      6  O   UNL     1      -3.882   6.018  22.188  0.00  0.00    -0.226 OA
ATOM      7  N   UNL     1      -4.958   7.380  23.645  0.00  0.00    -0.279 N 
ATOM      8  H   UNL     1      -4.903   7.840  24.543  0.00  0.00    +0.152 HD
BRANCH   5   9
ATOM      9  O   UNL     1      -2.808   6.556  24.146  0.00  0.00    -0.444 OA
BRANCH   9  10
ATOM     10  C   UNL     1      -3.137   5.711  25.251  0.00  0.00    +0.292 C 
BRANCH  10  12
ATOM     11  N   UNL     1      -1.679   7.140  26.643  0.00  0.00    -0.131 NA
ATOM     12  C   UNL     1      -2.812   6.387  26.520  0.00  0.00    +0.120 A 
ATOM     13  C   UNL     1      -3.509   6.425  27.708  0.00  0.00    +0.137 A 
ATOM     14  N   UNL     1      -2.800   7.294  28.484  0.00  0.00    -0.248 N 
ATOM     15  N   UNL     1      -1.659   7.660  27.861  0.00  0.00    -0.065 NA
BRANCH  14  16
ATOM     16  C   UNL     1      -3.113   7.885  29.780  0.00  0.00    +0.109 C 
ATOM     17  C   UNL     1      -2.594   9.333  29.867  0.00  0.00    +0.027 C 
ATOM     18  C   UNL     1      -3.427  10.278  29.005  0.00  0.00    +0.002 C 
ATOM     19  C   UNL     1      -4.886  10.271  29.446  0.00  0.00    +0.000 C 
ATOM     20  C   UNL     1      -5.482   8.866  29.471  0.00  0.00    +0.002 C 
ATOM     21  C   UNL     1      -4.597   7.845  30.195  0.00  0.00    +0.027 C 
ENDBRANCH  14  16
ENDBRANCH  10  12
ENDBRANCH   9  10
ENDBRANCH   5   9
ENDBRANCH   4   7
ENDBRANCH   1   4
BRANCH   1  22
ATOM     22  C   UNL     1      -6.496  10.041  22.622  0.00  0.00    +0.175 C 
BRANCH  22  23
ATOM     23  C   UNL     1      -5.301  10.877  23.105  0.00  0.00    +0.176 C 
ATOM     24  O   UNL     1      -5.487  11.146  24.522  0.00  0.00    -0.332 OA
ATOM     25  C   UNL     1      -4.384  11.849  25.184  0.00  0.00    +0.277 C 
ATOM     26  C   UNL     1      -4.058  13.167  24.440  0.00  0.00    +0.110 C 
ATOM     27  C   UNL     1      -3.883  12.936  22.924  0.00  0.00    +0.143 C 
ATOM     28  C   UNL     1      -5.086  12.196  22.339  0.00  0.00    +0.133 C 
BRANCH  28  29
ATOM     29  N   UNL     1      -4.869  11.905  20.913  0.00  0.00    -0.308 N 
ATOM     30  H   UNL     1      -4.024  11.414  20.655  0.00  0.00    +0.149 HD
ATOM     31  C   UNL     1      -5.714  12.249  19.937  0.00  0.00    +0.210 C 
ATOM     32  C   UNL     1      -6.979  13.019  20.361  0.00  0.00    +0.109 C 
ATOM     33  O   UNL     1      -5.513  11.979  18.753  0.00  0.00    -0.276 OA
ENDBRANCH  28  29
BRANCH  25  34
ATOM     34  C   UNL     1      -3.123  10.961  25.237  0.00  0.00    +0.414 C 
ATOM     35  O   UNL     1      -2.011  11.470  25.370  0.00  0.00    -0.240 OA
ATOM     36  O   UNL     1      -3.218   9.736  25.146  0.00  0.00    -0.240 OA
ENDBRANCH  25  34
BRANCH  27  37
ATOM     37  O   UNL     1      -3.735  14.192  22.260  0.00  0.00    -0.390 OA
ATOM     38  H   UNL     1      -3.607  14.886  22.911  0.00  0.00    +0.210 HD
ENDBRANCH  27  37
BRANCH  25  39
ATOM     39  O   UNL     1      -4.806  12.177  26.533  0.00  0.00    -0.343 OA
ATOM     40  C   UNL     1      -5.822  13.208  26.622  0.00  0.00    +0.198 C 
ENDBRANCH  25  39
ENDBRANCH  22  23
BRANCH  22  41
ATOM     41  O   UNL     1      -7.352   9.711  23.734  0.00  0.00    -0.387 OA
ATOM     42  H   UNL     1      -6.869   9.165  24.359  0.00  0.00    +0.210 HD
ENDBRANCH  22  41
ENDBRANCH   1  22
TORSDOF 14
