REMARK VINA RESULT:    -4.588      2.297      3.095
REMARK INTER + INTRA:         -11.720
REMARK INTER:                  -9.056
REMARK INTRA:                  -2.664
REMARK UNBOUND:                -3.243
REMARK  Name = lig_assembled_78.pdb
REMARK  18 active torsions:
REMARK  status: ('A' for Active; 'I' for Inactive)
REMARK    1  A    between atoms: _2  and  _9
REMARK    2  A    between atoms: _4  and  _21
REMARK    3  A    between atoms: _6  and  _7
REMARK    4  A    between atoms: _6  and  _21
REMARK    5  A    between atoms: _9  and  _41
REMARK    6  A    between atoms: _10  and  _41
REMARK    7  A    between atoms: _17  and  _37
REMARK    8  A    between atoms: _19  and  _25
REMARK    9  A    between atoms: _20  and  _24
REMARK   10  A    between atoms: _24  and  _25
REMARK   11  A    between atoms: _27  and  _28
REMARK   12  A    between atoms: _29  and  _30
REMARK   13  A    between atoms: _31  and  _33
REMARK   14  A    between atoms: _33  and  _34
REMARK   15  A    between atoms: _33  and  _35
REMARK   16  A    between atoms: _35  and  _36
REMARK   17  A    between atoms: _35  and  _37
REMARK   18  A    between atoms: _38  and  _40
REMARK                            x       y       z     vdW  Elec       q    Type
REMARK                         _______ _______ _______ _____ _____    ______ ____
ROOT
ATOM      1  C   UNL     1      -4.339  10.766  25.373  0.00  0.00    +0.163 C 
ENDROOT
BRANCH   1   2
ATOM      2  O   UNL     1      -4.957  10.153  24.229  0.00  0.00    -0.388 OA
ATOM      3  H   UNL     1      -4.334   9.555  23.810  0.00  0.00    +0.210 HD
ENDBRANCH   1   2
BRANCH   1   4
ATOM      4  C   UNL     1      -2.910  10.234  25.577  0.00  0.00    +0.175 C 
BRANCH   4   5
ATOM      5  C   UNL     1      -2.887   8.944  26.410  0.00  0.00    +0.176 C 
ATOM      6  O   UNL     1      -3.330   7.852  25.557  0.00  0.00    -0.332 OA
ATOM      7  C   UNL     1      -3.271   6.516  26.156  0.00  0.00    +0.277 C 
ATOM      8  C   UNL     1      -4.055   6.487  27.491  0.00  0.00    +0.110 C 
ATOM      9  C   UNL     1      -3.642   7.648  28.419  0.00  0.00    +0.143 C 
ATOM     10  C   UNL     1      -3.737   8.991  27.694  0.00  0.00    +0.133 C 
BRANCH  10  11
ATOM     11  N   UNL     1      -3.258  10.080  28.560  0.00  0.00    -0.308 N 
ATOM     12  H   UNL     1      -2.269  10.120  28.763  0.00  0.00    +0.149 HD
ATOM     13  C   UNL     1      -4.044  11.017  29.095  0.00  0.00    +0.210 C 
ATOM     14  C   UNL     1      -5.550  10.912  28.787  0.00  0.00    +0.109 C 
ATOM     15  O   UNL     1      -3.613  11.926  29.805  0.00  0.00    -0.276 OA
ENDBRANCH  10  11
BRANCH   7  16
ATOM     16  C   UNL     1      -1.809   6.092  26.407  0.00  0.00    +0.414 C 
ATOM     17  O   UNL     1      -1.476   5.632  27.498  0.00  0.00    -0.240 OA
ATOM     18  O   UNL     1      -0.964   6.211  25.519  0.00  0.00    -0.240 OA
ENDBRANCH   7  16
BRANCH   7  19
ATOM     19  O   UNL     1      -3.899   5.584  25.237  0.00  0.00    -0.343 OA
ATOM     20  C   UNL     1      -4.282   6.150  23.959  0.00  0.00    +0.198 C 
ENDBRANCH   7  19
BRANCH   9  21
ATOM     21  O   UNL     1      -4.490   7.673  29.568  0.00  0.00    -0.390 OA
ATOM     22  H   UNL     1      -3.967   7.512  30.356  0.00  0.00    +0.210 HD
ENDBRANCH   9  21
ENDBRANCH   4   5
BRANCH   4  23
ATOM     23  O   UNL     1      -2.089  11.242  26.199  0.00  0.00    -0.387 OA
ATOM     24  H   UNL     1      -2.611  11.729  26.841  0.00  0.00    +0.210 HD
ENDBRANCH   4  23
ENDBRANCH   1   4
BRANCH   1  25
ATOM     25  C   UNL     1      -4.299  12.280  25.196  0.00  0.00    +0.141 C 
BRANCH  25  28
ATOM     26  C   UNL     1      -4.285  13.309  22.949  0.00  0.00    +0.401 C 
ATOM     27  O   UNL     1      -5.473  13.637  22.989  0.00  0.00    -0.226 OA
ATOM     28  N   UNL     1      -3.656  12.666  23.934  0.00  0.00    -0.279 N 
ATOM     29  H   UNL     1      -2.681  12.432  23.804  0.00  0.00    +0.152 HD
BRANCH  26  30
ATOM     30  O   UNL     1      -3.516  13.624  21.785  0.00  0.00    -0.444 OA
BRANCH  30  31
ATOM     31  C   UNL     1      -2.787  12.467  21.367  0.00  0.00    +0.292 C 
BRANCH  31  33
ATOM     32  N   UNL     1      -3.770  10.192  21.405  0.00  0.00    -0.131 NA
ATOM     33  C   UNL     1      -3.709  11.441  20.846  0.00  0.00    +0.120 A 
ATOM     34  C   UNL     1      -4.606  11.510  19.803  0.00  0.00    +0.139 A 
ATOM     35  N   UNL     1      -5.224  10.295  19.820  0.00  0.00    -0.230 N 
ATOM     36  N   UNL     1      -4.687   9.490  20.753  0.00  0.00    -0.064 NA
BRANCH  35  37
ATOM     37  C   UNL     1      -6.257   9.797  18.947  0.00  0.00    +0.316 C 
BRANCH  37  38
ATOM     38  S   UNL     1      -5.632   9.008  17.485  0.00  0.00    +0.017 S 
ATOM     39  O   UNL     1      -4.540   8.120  17.831  0.00  0.00    -0.168 OA
ATOM     40  O   UNL     1      -6.767   8.530  16.715  0.00  0.00    -0.168 OA
BRANCH  38  41
ATOM     41  C   UNL     1      -4.899  10.338  16.555  0.00  0.00    +0.090 A 
ATOM     42  C   UNL     1      -3.652  10.143  15.951  0.00  0.00    +0.027 A 
ATOM     43  C   UNL     1      -3.087  11.173  15.200  0.00  0.00    +0.002 A 
ATOM     44  C   UNL     1      -3.771  12.380  15.041  0.00  0.00    +0.000 A 
ATOM     45  C   UNL     1      -5.023  12.561  15.630  0.00  0.00    +0.002 A 
ATOM     46  C   UNL     1      -5.594  11.540  16.391  0.00  0.00    +0.027 A 
ENDBRANCH  38  41
ENDBRANCH  37  38
ENDBRANCH  35  37
ENDBRANCH  31  33
ENDBRANCH  30  31
ENDBRANCH  26  30
ENDBRANCH  25  28
ENDBRANCH   1  25
TORSDOF 16
