REMARK VINA RESULT:    -3.844      2.165      7.947
REMARK INTER + INTRA:         -12.038
REMARK INTER:                  -8.183
REMARK INTRA:                  -3.854
REMARK UNBOUND:                -4.711
REMARK  Name = lig_assembled_62.pdb
REMARK  20 active torsions:
REMARK  status: ('A' for Active; 'I' for Inactive)
REMARK    1  A    between atoms: _2  and  _10
REMARK    2  A    between atoms: _5  and  _19
REMARK    3  A    between atoms: _6  and  _10
REMARK    4  A    between atoms: _7  and  _8
REMARK    5  A    between atoms: _7  and  _19
REMARK    6  A    between atoms: _10  and  _11
REMARK    7  A    between atoms: _11  and  _14
REMARK    8  A    between atoms: _12  and  _14
REMARK    9  A    between atoms: _15  and  _35
REMARK   10  A    between atoms: _17  and  _23
REMARK   11  A    between atoms: _18  and  _22
REMARK   12  A    between atoms: _22  and  _23
REMARK   13  A    between atoms: _25  and  _26
REMARK   14  A    between atoms: _27  and  _28
REMARK   15  A    between atoms: _29  and  _31
REMARK   16  A    between atoms: _31  and  _32
REMARK   17  A    between atoms: _31  and  _33
REMARK   18  A    between atoms: _33  and  _34
REMARK   19  A    between atoms: _33  and  _35
REMARK   20  A    between atoms: _36  and  _38
REMARK                            x       y       z     vdW  Elec       q    Type
REMARK                         _______ _______ _______ _____ _____    ______ ____
ROOT
ATOM      1  C   UNL     1      -3.226  11.737  25.057  0.00  0.00    +0.163 C 
ENDROOT
BRANCH   1   2
ATOM      2  O   UNL     1      -2.015  10.963  25.076  0.00  0.00    -0.388 OA
ATOM      3  H   UNL     1      -1.987  10.431  25.875  0.00  0.00    +0.210 HD
ENDBRANCH   1   2
BRANCH   1   4
ATOM      4  C   UNL     1      -3.799  11.896  26.476  0.00  0.00    +0.175 C 
BRANCH   4   5
ATOM      5  C   UNL     1      -3.457  10.698  27.375  0.00  0.00    +0.176 C 
ATOM      6  O   UNL     1      -4.091   9.519  26.809  0.00  0.00    -0.332 OA
ATOM      7  C   UNL     1      -3.787   8.251  27.480  0.00  0.00    +0.277 C 
ATOM      8  C   UNL     1      -4.113   8.347  28.990  0.00  0.00    +0.110 C 
ATOM      9  C   UNL     1      -3.486   9.603  29.630  0.00  0.00    +0.143 C 
ATOM     10  C   UNL     1      -3.865  10.863  28.851  0.00  0.00    +0.133 C 
BRANCH  10  11
ATOM     11  N   UNL     1      -3.192  12.042  29.418  0.00  0.00    -0.308 N 
ATOM     12  H   UNL     1      -2.182  12.056  29.414  0.00  0.00    +0.149 HD
ATOM     13  C   UNL     1      -3.828  13.095  29.938  0.00  0.00    +0.210 C 
ATOM     14  C   UNL     1      -5.367  13.032  29.954  0.00  0.00    +0.109 C 
ATOM     15  O   UNL     1      -3.238  14.075  30.393  0.00  0.00    -0.276 OA
ENDBRANCH  10  11
BRANCH   7  16
ATOM     16  C   UNL     1      -2.301   7.878  27.296  0.00  0.00    +0.414 C 
ATOM     17  O   UNL     1      -1.721   8.140  26.243  0.00  0.00    -0.240 OA
ATOM     18  O   UNL     1      -1.682   7.316  28.200  0.00  0.00    -0.240 OA
ENDBRANCH   7  16
BRANCH   7  19
ATOM     19  O   UNL     1      -4.625   7.221  26.895  0.00  0.00    -0.343 OA
ATOM     20  C   UNL     1      -6.049   7.492  26.939  0.00  0.00    +0.198 C 
ENDBRANCH   7  19
BRANCH   9  21
ATOM     21  O   UNL     1      -3.935   9.732  30.980  0.00  0.00    -0.390 OA
ATOM     22  H   UNL     1      -4.106   8.861  31.345  0.00  0.00    +0.210 HD
ENDBRANCH   9  21
ENDBRANCH   4   5
BRANCH   4  23
ATOM     23  O   UNL     1      -5.227  12.081  26.417  0.00  0.00    -0.387 OA
ATOM     24  H   UNL     1      -5.666  11.308  26.781  0.00  0.00    +0.210 HD
ENDBRANCH   4  23
ENDBRANCH   1   4
BRANCH   1  25
ATOM     25  C   UNL     1      -2.955  13.114  24.460  0.00  0.00    +0.141 C 
BRANCH  25  28
ATOM     26  C   UNL     1      -4.263  14.201  22.668  0.00  0.00    +0.401 C 
ATOM     27  O   UNL     1      -3.333  14.199  21.858  0.00  0.00    -0.226 OA
ATOM     28  N   UNL     1      -4.173  13.720  23.908  0.00  0.00    -0.279 N 
ATOM     29  H   UNL     1      -4.989  13.776  24.502  0.00  0.00    +0.152 HD
BRANCH  26  30
ATOM     30  O   UNL     1      -5.523  14.753  22.277  0.00  0.00    -0.444 OA
BRANCH  30  31
ATOM     31  C   UNL     1      -6.265  13.776  21.541  0.00  0.00    +0.292 C 
BRANCH  31  33
ATOM     32  N   UNL     1      -6.743  12.391  23.538  0.00  0.00    -0.131 NA
ATOM     33  C   UNL     1      -6.267  12.487  22.258  0.00  0.00    +0.120 A 
ATOM     34  C   UNL     1      -5.843  11.243  21.843  0.00  0.00    +0.138 A 
ATOM     35  N   UNL     1      -6.073  10.436  22.919  0.00  0.00    -0.237 N 
ATOM     36  N   UNL     1      -6.622  11.131  23.934  0.00  0.00    -0.065 NA
BRANCH  35  37
ATOM     37  C   UNL     1      -5.843   9.010  23.072  0.00  0.00    +0.219 C 
BRANCH  37  38
ATOM     38  C   UNL     1      -4.360   8.731  23.264  0.00  0.00    +0.237 C 
ATOM     39  O   UNL     1      -3.460   9.440  22.822  0.00  0.00    -0.274 OA
ATOM     40  N   UNL     1      -4.048   7.645  24.037  0.00  0.00    -0.328 N 
ATOM     41  H   UNL     1      -4.737   7.072  24.506  0.00  0.00    +0.145 HD
ATOM     42  H   UNL     1      -3.068   7.441  24.189  0.00  0.00    +0.145 HD
ENDBRANCH  37  38
BRANCH  37  43
ATOM     43  C   UNL     1      -6.392   8.242  21.873  0.00  0.00    +0.195 C 
BRANCH  43  44
ATOM     44  O   UNL     1      -5.328   7.512  21.247  0.00  0.00    -0.380 OA
ATOM     45  C   UNL     1      -5.754   6.226  20.815  0.00  0.00    +0.194 C 
ENDBRANCH  43  44
ENDBRANCH  37  43
ENDBRANCH  35  37
ENDBRANCH  31  33
ENDBRANCH  30  31
ENDBRANCH  26  30
ENDBRANCH  25  28
ENDBRANCH   1  25
TORSDOF 17
