REMARK VINA RESULT:    -5.747      2.323      2.951
REMARK INTER + INTRA:         -13.240
REMARK INTER:                 -11.135
REMARK INTRA:                  -2.106
REMARK UNBOUND:                -2.453
REMARK  Name = lig_assembled_75.pdb
REMARK  19 active torsions:
REMARK  status: ('A' for Active; 'I' for Inactive)
REMARK    1  A    between atoms: _2  and  _9
REMARK    2  A    between atoms: _4  and  _23
REMARK    3  A    between atoms: _6  and  _7
REMARK    4  A    between atoms: _6  and  _23
REMARK    5  A    between atoms: _11  and  _12
REMARK    6  A    between atoms: _13  and  _14
REMARK    7  A    between atoms: _14  and  _17
REMARK    8  A    between atoms: _19  and  _39
REMARK    9  A    between atoms: _21  and  _27
REMARK   10  A    between atoms: _22  and  _26
REMARK   11  A    between atoms: _26  and  _27
REMARK   12  A    between atoms: _29  and  _30
REMARK   13  A    between atoms: _31  and  _32
REMARK   14  A    between atoms: _33  and  _35
REMARK   15  A    between atoms: _35  and  _36
REMARK   16  A    between atoms: _35  and  _37
REMARK   17  A    between atoms: _37  and  _38
REMARK   18  A    between atoms: _37  and  _39
REMARK   19  A    between atoms: _40  and  _42
REMARK                            x       y       z     vdW  Elec       q    Type
REMARK                         _______ _______ _______ _____ _____    ______ ____
ROOT
ATOM      1  C   UNL     1      -3.053  13.140  24.392  0.00  0.00    +0.141 C 
ENDROOT
BRANCH   1   4
ATOM      2  C   UNL     1      -5.042  13.614  23.005  0.00  0.00    +0.401 C 
ATOM      3  O   UNL     1      -5.701  14.073  23.940  0.00  0.00    -0.226 OA
ATOM      4  N   UNL     1      -3.798  13.149  23.127  0.00  0.00    -0.279 N 
ATOM      5  H   UNL     1      -3.342  12.783  22.303  0.00  0.00    +0.152 HD
BRANCH   2   6
ATOM      6  O   UNL     1      -5.628  13.562  21.702  0.00  0.00    -0.444 OA
BRANCH   6   7
ATOM      7  C   UNL     1      -5.675  12.205  21.252  0.00  0.00    +0.292 C 
BRANCH   7   9
ATOM      8  N   UNL     1      -6.820  12.234  19.060  0.00  0.00    -0.131 NA
ATOM      9  C   UNL     1      -5.662  12.151  19.779  0.00  0.00    +0.121 A 
ATOM     10  C   UNL     1      -4.602  12.018  18.912  0.00  0.00    +0.143 A 
ATOM     11  N   UNL     1      -5.165  12.023  17.657  0.00  0.00    -0.220 N 
ATOM     12  N   UNL     1      -6.511  12.154  17.773  0.00  0.00    -0.060 NA
BRANCH  11  13
ATOM     13  C   UNL     1      -4.532  11.887  16.395  0.00  0.00    +0.068 A 
ATOM     14  C   UNL     1      -3.907  10.672  16.066  0.00  0.00    +0.035 A 
ATOM     15  C   UNL     1      -3.214  10.525  14.855  0.00  0.00    -0.023 A 
ATOM     16  C   UNL     1      -3.211  11.592  13.949  0.00  0.00    +0.008 A 
ATOM     17  C   UNL     1      -3.850  12.795  14.261  0.00  0.00    +0.003 A 
ATOM     18  C   UNL     1      -4.502  12.948  15.484  0.00  0.00    +0.028 A 
BRANCH  15  19
ATOM     19  C   UNL     1      -2.509   9.286  14.494  0.00  0.00    +0.015 C 
ATOM     20  C   UNL     1      -2.732   8.605  13.358  0.00  0.00    +0.092 C 
BRANCH  20  21
ATOM     21  C   UNL     1      -2.011   7.342  13.110  0.00  0.00    +0.330 C 
ATOM     22  O   UNL     1      -0.865   7.264  12.705  0.00  0.00    -0.246 OA
BRANCH  21  23
ATOM     23  O   UNL     1      -2.769   6.264  13.397  0.00  0.00    -0.478 OA
ATOM     24  H   UNL     1      -2.892   6.075  14.345  0.00  0.00    +0.295 HD
ENDBRANCH  21  23
ENDBRANCH  20  21
ENDBRANCH  15  19
ENDBRANCH  11  13
ENDBRANCH   7   9
ENDBRANCH   6   7
ENDBRANCH   2   6
ENDBRANCH   1   4
BRANCH   1  25
ATOM     25  C   UNL     1      -3.239  11.831  25.152  0.00  0.00    +0.163 C 
BRANCH  25  26
ATOM     26  O   UNL     1      -2.054  11.027  25.044  0.00  0.00    -0.388 OA
ATOM     27  H   UNL     1      -2.194  10.187  25.489  0.00  0.00    +0.210 HD
ENDBRANCH  25  26
BRANCH  25  28
ATOM     28  C   UNL     1      -3.565  12.135  26.625  0.00  0.00    +0.175 C 
BRANCH  28  29
ATOM     29  C   UNL     1      -3.318  10.921  27.533  0.00  0.00    +0.176 C 
ATOM     30  O   UNL     1      -3.927   9.760  26.904  0.00  0.00    -0.332 OA
ATOM     31  C   UNL     1      -3.700   8.480  27.581  0.00  0.00    +0.277 C 
ATOM     32  C   UNL     1      -4.144   8.565  29.062  0.00  0.00    +0.110 C 
ATOM     33  C   UNL     1      -3.547   9.803  29.765  0.00  0.00    +0.143 C 
ATOM     34  C   UNL     1      -3.840  11.078  28.974  0.00  0.00    +0.133 C 
BRANCH  34  35
ATOM     35  N   UNL     1      -3.192  12.237  29.608  0.00  0.00    -0.308 N 
ATOM     36  H   UNL     1      -2.183  12.267  29.616  0.00  0.00    +0.149 HD
ATOM     37  C   UNL     1      -3.852  13.253  30.172  0.00  0.00    +0.210 C 
ATOM     38  C   UNL     1      -5.390  13.164  30.165  0.00  0.00    +0.109 C 
ATOM     39  O   UNL     1      -3.284  14.218  30.682  0.00  0.00    -0.276 OA
ENDBRANCH  34  35
BRANCH  31  40
ATOM     40  C   UNL     1      -2.211   8.081  27.512  0.00  0.00    +0.414 C 
ATOM     41  O   UNL     1      -1.622   8.069  26.432  0.00  0.00    -0.240 OA
ATOM     42  O   UNL     1      -1.600   7.770  28.535  0.00  0.00    -0.240 OA
ENDBRANCH  31  40
BRANCH  31  43
ATOM     43  O   UNL     1      -4.507   7.473  26.919  0.00  0.00    -0.343 OA
ATOM     44  C   UNL     1      -4.942   7.820  25.580  0.00  0.00    +0.198 C 
ENDBRANCH  31  43
BRANCH  33  45
ATOM     45  O   UNL     1      -4.100   9.925  31.076  0.00  0.00    -0.390 OA
ATOM     46  H   UNL     1      -4.768   9.248  31.207  0.00  0.00    +0.210 HD
ENDBRANCH  33  45
ENDBRANCH  28  29
BRANCH  28  47
ATOM     47  O   UNL     1      -4.931  12.579  26.750  0.00  0.00    -0.387 OA
ATOM     48  H   UNL     1      -4.944  13.506  26.999  0.00  0.00    +0.210 HD
ENDBRANCH  28  47
ENDBRANCH  25  28
ENDBRANCH   1  25
TORSDOF 17
