REMARK VINA RESULT:    -4.316      3.274      8.626
REMARK INTER + INTRA:         -11.384
REMARK INTER:                  -8.021
REMARK INTRA:                  -3.362
REMARK UNBOUND:                -3.914
REMARK  Name = lig_assembled_20.pdb
REMARK  16 active torsions:
REMARK  status: ('A' for Active; 'I' for Inactive)
REMARK    1  A    between atoms: _2  and  _11
REMARK    2  A    between atoms: _6  and  _21
REMARK    3  A    between atoms: _8  and  _9
REMARK    4  A    between atoms: _8  and  _21
REMARK    5  A    between atoms: _17  and  _37
REMARK    6  A    between atoms: _19  and  _25
REMARK    7  A    between atoms: _20  and  _24
REMARK    8  A    between atoms: _24  and  _25
REMARK    9  A    between atoms: _27  and  _28
REMARK   10  A    between atoms: _29  and  _30
REMARK   11  A    between atoms: _31  and  _33
REMARK   12  A    between atoms: _33  and  _34
REMARK   13  A    between atoms: _33  and  _35
REMARK   14  A    between atoms: _35  and  _36
REMARK   15  A    between atoms: _35  and  _37
REMARK   16  A    between atoms: _38  and  _40
REMARK                            x       y       z     vdW  Elec       q    Type
REMARK                         _______ _______ _______ _____ _____    ______ ____
ROOT
ATOM      1  C   UNL     1      -4.518  13.067  29.670  0.00  0.00    +0.163 C 
ENDROOT
BRANCH   1   2
ATOM      2  O   UNL     1      -3.194  12.979  30.221  0.00  0.00    -0.388 OA
ATOM      3  H   UNL     1      -3.176  13.404  31.082  0.00  0.00    +0.210 HD
ENDBRANCH   1   2
BRANCH   1   4
ATOM      4  C   UNL     1      -5.472  13.668  30.697  0.00  0.00    +0.141 C 
BRANCH   4   7
ATOM      5  C   UNL     1      -7.041  15.346  29.788  0.00  0.00    +0.401 C 
ATOM      6  O   UNL     1      -6.290  16.301  30.000  0.00  0.00    -0.226 OA
ATOM      7  N   UNL     1      -6.742  14.082  30.088  0.00  0.00    -0.279 N 
ATOM      8  H   UNL     1      -7.428  13.368  29.884  0.00  0.00    +0.152 HD
BRANCH   5   9
ATOM      9  O   UNL     1      -8.317  15.586  29.189  0.00  0.00    -0.444 OA
BRANCH   9  10
ATOM     10  C   UNL     1      -8.136  16.174  27.898  0.00  0.00    +0.292 C 
BRANCH  10  12
ATOM     11  N   UNL     1      -7.955  13.893  26.940  0.00  0.00    -0.131 NA
ATOM     12  C   UNL     1      -7.550  15.196  26.961  0.00  0.00    +0.121 A 
ATOM     13  C   UNL     1      -6.574  15.377  26.011  0.00  0.00    +0.143 A 
ATOM     14  N   UNL     1      -6.410  14.144  25.423  0.00  0.00    -0.220 N 
ATOM     15  N   UNL     1      -7.259  13.260  26.004  0.00  0.00    -0.060 NA
BRANCH  14  16
ATOM     16  C   UNL     1      -5.524  13.776  24.378  0.00  0.00    +0.068 A 
ATOM     17  C   UNL     1      -5.111  14.736  23.441  0.00  0.00    +0.030 A 
ATOM     18  C   UNL     1      -4.232  14.406  22.399  0.00  0.00    +0.030 A 
ATOM     19  C   UNL     1      -3.787  13.083  22.335  0.00  0.00    +0.066 A 
ATOM     20  C   UNL     1      -4.178  12.109  23.244  0.00  0.00    +0.021 A 
ATOM     21  C   UNL     1      -3.513  10.938  22.823  0.00  0.00    +0.142 A 
ATOM     22  N   UNL     1      -2.758  11.137  21.740  0.00  0.00    -0.181 NA
ATOM     23  N   UNL     1      -2.941  12.441  21.467  0.00  0.00    -0.277 N 
ATOM     24  H   UNL     1      -2.460  12.838  20.669  0.00  0.00    +0.189 HD
ATOM     25  C   UNL     1      -5.060  12.450  24.285  0.00  0.00    +0.039 A 
ENDBRANCH  14  16
ENDBRANCH  10  12
ENDBRANCH   9  10
ENDBRANCH   5   9
ENDBRANCH   4   7
ENDBRANCH   1   4
BRANCH   1  26
ATOM     26  C   UNL     1      -5.029  11.681  29.242  0.00  0.00    +0.175 C 
BRANCH  26  27
ATOM     27  C   UNL     1      -3.891  10.768  28.762  0.00  0.00    +0.176 C 
ATOM     28  O   UNL     1      -4.259  10.242  27.457  0.00  0.00    -0.332 OA
ATOM     29  C   UNL     1      -3.239   9.427  26.791  0.00  0.00    +0.277 C 
ATOM     30  C   UNL     1      -2.785   8.269  27.713  0.00  0.00    +0.110 C 
ATOM     31  C   UNL     1      -2.413   8.775  29.122  0.00  0.00    +0.143 C 
ATOM     32  C   UNL     1      -3.544   9.613  29.720  0.00  0.00    +0.133 C 
BRANCH  32  33
ATOM     33  N   UNL     1      -3.143  10.161  31.026  0.00  0.00    -0.308 N 
ATOM     34  H   UNL     1      -2.337  10.769  31.055  0.00  0.00    +0.149 HD
ATOM     35  C   UNL     1      -3.777   9.909  32.174  0.00  0.00    +0.210 C 
ATOM     36  C   UNL     1      -4.987   8.958  32.100  0.00  0.00    +0.109 C 
ATOM     37  O   UNL     1      -3.428  10.394  33.251  0.00  0.00    -0.276 OA
ENDBRANCH  32  33
BRANCH  29  38
ATOM     38  C   UNL     1      -2.018  10.288  26.405  0.00  0.00    +0.414 C 
ATOM     39  O   UNL     1      -2.171  11.452  26.037  0.00  0.00    -0.240 OA
ATOM     40  O   UNL     1      -0.881   9.818  26.461  0.00  0.00    -0.240 OA
ENDBRANCH  29  38
BRANCH  31  41
ATOM     41  O   UNL     1      -2.148   7.663  29.979  0.00  0.00    -0.390 OA
ATOM     42  H   UNL     1      -1.269   7.322  29.799  0.00  0.00    +0.210 HD
ENDBRANCH  31  41
BRANCH  29  43
ATOM     43  O   UNL     1      -3.831   8.856  25.596  0.00  0.00    -0.343 OA
ATOM     44  C   UNL     1      -5.231   8.499  25.717  0.00  0.00    +0.198 C 
ENDBRANCH  29  43
ENDBRANCH  26  27
BRANCH  26  45
ATOM     45  O   UNL     1      -6.026  11.816  28.210  0.00  0.00    -0.387 OA
ATOM     46  H   UNL     1      -5.622  12.181  27.420  0.00  0.00    +0.210 HD
ENDBRANCH  26  45
ENDBRANCH   1  26
TORSDOF 14
