REMARK VINA RESULT:    -4.267      3.393      8.747
REMARK INTER + INTRA:         -11.299
REMARK INTER:                  -8.479
REMARK INTRA:                  -2.820
REMARK UNBOUND:                -3.914
REMARK  Name = lig_assembled_20.pdb
REMARK  16 active torsions:
REMARK  status: ('A' for Active; 'I' for Inactive)
REMARK    1  A    between atoms: _2  and  _11
REMARK    2  A    between atoms: _6  and  _21
REMARK    3  A    between atoms: _8  and  _9
REMARK    4  A    between atoms: _8  and  _21
REMARK    5  A    between atoms: _17  and  _37
REMARK    6  A    between atoms: _19  and  _25
REMARK    7  A    between atoms: _20  and  _24
REMARK    8  A    between atoms: _24  and  _25
REMARK    9  A    between atoms: _27  and  _28
REMARK   10  A    between atoms: _29  and  _30
REMARK   11  A    between atoms: _31  and  _33
REMARK   12  A    between atoms: _33  and  _34
REMARK   13  A    between atoms: _33  and  _35
REMARK   14  A    between atoms: _35  and  _36
REMARK   15  A    between atoms: _35  and  _37
REMARK   16  A    between atoms: _38  and  _40
REMARK                            x       y       z     vdW  Elec       q    Type
REMARK                         _______ _______ _______ _____ _____    ______ ____
ROOT
ATOM      1  C   UNL     1      -7.460   9.539  25.155  0.00  0.00    +0.163 C 
ENDROOT
BRANCH   1   2
ATOM      2  O   UNL     1      -6.783   8.274  25.235  0.00  0.00    -0.388 OA
ATOM      3  H   UNL     1      -7.398   7.599  25.532  0.00  0.00    +0.210 HD
ENDBRANCH   1   2
BRANCH   1   4
ATOM      4  C   UNL     1      -8.821   9.360  24.490  0.00  0.00    +0.141 C 
BRANCH   4   7
ATOM      5  C   UNL     1      -8.422   8.725  22.136  0.00  0.00    +0.401 C 
ATOM      6  O   UNL     1      -8.102   7.565  22.405  0.00  0.00    -0.226 OA
ATOM      7  N   UNL     1      -8.767   9.634  23.049  0.00  0.00    -0.279 N 
ATOM      8  H   UNL     1      -9.004  10.563  22.731  0.00  0.00    +0.152 HD
BRANCH   5   9
ATOM      9  O   UNL     1      -8.427   9.145  20.769  0.00  0.00    -0.444 OA
BRANCH   9  10
ATOM     10  C   UNL     1      -7.721  10.383  20.647  0.00  0.00    +0.292 C 
BRANCH  10  12
ATOM     11  N   UNL     1      -5.716   9.289  19.682  0.00  0.00    -0.131 NA
ATOM     12  C   UNL     1      -6.658  10.276  19.631  0.00  0.00    +0.121 A 
ATOM     13  C   UNL     1      -6.420  11.066  18.532  0.00  0.00    +0.143 A 
ATOM     14  N   UNL     1      -5.310  10.521  17.930  0.00  0.00    -0.220 N 
ATOM     15  N   UNL     1      -4.900   9.444  18.646  0.00  0.00    -0.060 NA
BRANCH  14  16
ATOM     16  C   UNL     1      -4.642  10.953  16.755  0.00  0.00    +0.068 A 
ATOM     17  C   UNL     1      -4.531  12.325  16.477  0.00  0.00    +0.030 A 
ATOM     18  C   UNL     1      -3.874  12.785  15.328  0.00  0.00    +0.030 A 
ATOM     19  C   UNL     1      -3.335  11.820  14.471  0.00  0.00    +0.066 A 
ATOM     20  C   UNL     1      -3.430  10.456  14.716  0.00  0.00    +0.021 A 
ATOM     21  C   UNL     1      -2.768   9.851  13.625  0.00  0.00    +0.142 A 
ATOM     22  N   UNL     1      -2.288  10.743  12.756  0.00  0.00    -0.181 NA
ATOM     23  N   UNL     1      -2.643  11.924  13.292  0.00  0.00    -0.277 N 
ATOM     24  H   UNL     1      -2.385  12.772  12.802  0.00  0.00    +0.189 HD
ATOM     25  C   UNL     1      -4.091  10.005  15.871  0.00  0.00    +0.039 A 
ENDBRANCH  14  16
ENDBRANCH  10  12
ENDBRANCH   9  10
ENDBRANCH   5   9
ENDBRANCH   4   7
ENDBRANCH   1   4
BRANCH   1  26
ATOM     26  C   UNL     1      -6.629  10.559  24.358  0.00  0.00    +0.175 C 
BRANCH  26  27
ATOM     27  C   UNL     1      -5.141  10.512  24.733  0.00  0.00    +0.176 C 
ATOM     28  O   UNL     1      -5.049  10.371  26.178  0.00  0.00    -0.332 OA
ATOM     29  C   UNL     1      -3.695  10.202  26.713  0.00  0.00    +0.277 C 
ATOM     30  C   UNL     1      -2.778  11.357  26.240  0.00  0.00    +0.110 C 
ATOM     31  C   UNL     1      -2.866  11.565  24.714  0.00  0.00    +0.143 C 
ATOM     32  C   UNL     1      -4.319  11.727  24.265  0.00  0.00    +0.133 C 
BRANCH  32  33
ATOM     33  N   UNL     1      -4.397  11.838  22.800  0.00  0.00    -0.308 N 
ATOM     34  H   UNL     1      -4.183  11.016  22.253  0.00  0.00    +0.149 HD
ATOM     35  C   UNL     1      -4.731  12.954  22.147  0.00  0.00    +0.210 C 
ATOM     36  C   UNL     1      -5.025  14.196  23.008  0.00  0.00    +0.109 C 
ATOM     37  O   UNL     1      -4.802  13.013  20.919  0.00  0.00    -0.276 OA
ENDBRANCH  32  33
BRANCH  29  38
ATOM     38  C   UNL     1      -3.095   8.852  26.268  0.00  0.00    +0.414 C 
ATOM     39  O   UNL     1      -3.811   7.995  25.753  0.00  0.00    -0.240 OA
ATOM     40  O   UNL     1      -1.895   8.621  26.423  0.00  0.00    -0.240 OA
ENDBRANCH  29  38
BRANCH  31  41
ATOM     41  O   UNL     1      -2.127  12.730  24.343  0.00  0.00    -0.390 OA
ATOM     42  H   UNL     1      -1.355  12.813  24.908  0.00  0.00    +0.210 HD
ENDBRANCH  31  41
BRANCH  29  43
ATOM     43  O   UNL     1      -3.776  10.246  28.161  0.00  0.00    -0.343 OA
ATOM     44  C   UNL     1      -3.758  11.578  28.735  0.00  0.00    +0.198 C 
ENDBRANCH  29  43
ENDBRANCH  26  27
BRANCH  26  45
ATOM     45  O   UNL     1      -7.150  11.888  24.557  0.00  0.00    -0.387 OA
ATOM     46  H   UNL     1      -7.993  11.837  25.013  0.00  0.00    +0.210 HD
ENDBRANCH  26  45
ENDBRANCH   1  26
TORSDOF 14
