REMARK VINA RESULT:    -4.901      5.275      9.673
REMARK INTER + INTRA:         -11.735
REMARK INTER:                  -8.530
REMARK INTRA:                  -3.205
REMARK UNBOUND:                -2.966
REMARK  Name = lig_assembled_89.pdb
REMARK  19 active torsions:
REMARK  status: ('A' for Active; 'I' for Inactive)
REMARK    1  A    between atoms: _2  and  _12
REMARK    2  A    between atoms: _5  and  _20
REMARK    3  A    between atoms: _7  and  _29
REMARK    4  A    between atoms: _9  and  _10
REMARK    5  A    between atoms: _9  and  _29
REMARK    6  A    between atoms: _20  and  _21
REMARK    7  A    between atoms: _20  and  _22
REMARK    8  A    between atoms: _25  and  _45
REMARK    9  A    between atoms: _27  and  _33
REMARK   10  A    between atoms: _28  and  _32
REMARK   11  A    between atoms: _32  and  _33
REMARK   12  A    between atoms: _35  and  _36
REMARK   13  A    between atoms: _37  and  _38
REMARK   14  A    between atoms: _39  and  _41
REMARK   15  A    between atoms: _41  and  _42
REMARK   16  A    between atoms: _41  and  _43
REMARK   17  A    between atoms: _43  and  _44
REMARK   18  A    between atoms: _43  and  _45
REMARK   19  A    between atoms: _46  and  _48
REMARK                            x       y       z     vdW  Elec       q    Type
REMARK                         _______ _______ _______ _____ _____    ______ ____
ROOT
ATOM      1  C   UNL     1      -3.794   6.697  23.508  0.00  0.00    +0.401 C 
ATOM      2  O   UNL     1      -3.342   7.160  22.458  0.00  0.00    -0.226 OA
ATOM      3  N   UNL     1      -5.079   6.759  23.857  0.00  0.00    -0.279 N 
ATOM      4  H   UNL     1      -5.356   6.341  24.735  0.00  0.00    +0.152 HD
ENDROOT
BRANCH   3   5
ATOM      5  C   UNL     1      -6.115   7.401  23.039  0.00  0.00    +0.141 C 
BRANCH   5   6
ATOM      6  C   UNL     1      -6.555   8.739  23.625  0.00  0.00    +0.163 C 
BRANCH   6   7
ATOM      7  O   UNL     1      -5.847   8.996  24.849  0.00  0.00    -0.388 OA
ATOM      8  H   UNL     1      -5.188   9.678  24.701  0.00  0.00    +0.210 HD
ENDBRANCH   6   7
BRANCH   6   9
ATOM      9  C   UNL     1      -6.303   9.857  22.599  0.00  0.00    +0.175 C 
BRANCH   9  10
ATOM     10  C   UNL     1      -4.977  10.587  22.854  0.00  0.00    +0.176 C 
ATOM     11  O   UNL     1      -5.170  11.485  23.981  0.00  0.00    -0.332 OA
ATOM     12  C   UNL     1      -3.971  12.195  24.439  0.00  0.00    +0.277 C 
ATOM     13  C   UNL     1      -3.315  12.962  23.265  0.00  0.00    +0.110 C 
ATOM     14  C   UNL     1      -3.118  12.056  22.032  0.00  0.00    +0.143 C 
ATOM     15  C   UNL     1      -4.426  11.365  21.644  0.00  0.00    +0.133 C 
BRANCH  15  16
ATOM     16  N   UNL     1      -4.207  10.439  20.522  0.00  0.00    -0.308 N 
ATOM     17  H   UNL     1      -3.585   9.657  20.671  0.00  0.00    +0.149 HD
ATOM     18  C   UNL     1      -4.776  10.564  19.320  0.00  0.00    +0.210 C 
ATOM     19  C   UNL     1      -5.698  11.781  19.117  0.00  0.00    +0.109 C 
ATOM     20  O   UNL     1      -4.586   9.764  18.404  0.00  0.00    -0.276 OA
ENDBRANCH  15  16
BRANCH  12  21
ATOM     21  C   UNL     1      -2.951  11.209  25.046  0.00  0.00    +0.414 C 
ATOM     22  O   UNL     1      -3.116   9.996  24.930  0.00  0.00    -0.240 OA
ATOM     23  O   UNL     1      -1.962  11.628  25.650  0.00  0.00    -0.240 OA
ENDBRANCH  12  21
BRANCH  14  24
ATOM     24  O   UNL     1      -2.654  12.836  20.930  0.00  0.00    -0.390 OA
ATOM     25  H   UNL     1      -2.824  13.766  21.101  0.00  0.00    +0.210 HD
ENDBRANCH  14  24
BRANCH  12  26
ATOM     26  O   UNL     1      -4.377  13.158  25.445  0.00  0.00    -0.343 OA
ATOM     27  C   UNL     1      -5.628  13.839  25.172  0.00  0.00    +0.198 C 
ENDBRANCH  12  26
ENDBRANCH   9  10
BRANCH   9  28
ATOM     28  O   UNL     1      -7.397  10.796  22.609  0.00  0.00    -0.387 OA
ATOM     29  H   UNL     1      -8.177  10.375  22.979  0.00  0.00    +0.210 HD
ENDBRANCH   9  28
ENDBRANCH   6   9
ENDBRANCH   5   6
ENDBRANCH   3   5
BRANCH   1  30
ATOM     30  O   UNL     1      -2.905   6.045  24.419  0.00  0.00    -0.444 OA
BRANCH  30  31
ATOM     31  C   UNL     1      -3.656   5.482  25.498  0.00  0.00    +0.292 C 
BRANCH  31  33
ATOM     32  N   UNL     1      -5.301   6.699  26.873  0.00  0.00    -0.131 NA
ATOM     33  C   UNL     1      -4.009   6.528  26.473  0.00  0.00    +0.121 A 
ATOM     34  C   UNL     1      -3.213   7.434  27.131  0.00  0.00    +0.145 A 
ATOM     35  N   UNL     1      -4.069   8.136  27.959  0.00  0.00    -0.199 N 
ATOM     36  N   UNL     1      -5.326   7.668  27.778  0.00  0.00    -0.059 NA
BRANCH  35  37
ATOM     37  C   UNL     1      -3.682   9.118  28.917  0.00  0.00    +0.186 A 
ATOM     38  C   UNL     1      -4.198  10.377  29.148  0.00  0.00    +0.158 A 
ATOM     39  C   UNL     1      -5.169  11.177  28.468  0.00  0.00    +0.280 A 
ATOM     40  O   UNL     1      -5.484  10.977  27.303  0.00  0.00    -0.265 OA
ATOM     41  N   UNL     1      -5.713  12.235  29.225  0.00  0.00    -0.302 N 
ATOM     42  C   UNL     1      -5.009  12.734  30.386  0.00  0.00    +0.069 A 
ATOM     43  C   UNL     1      -5.344  13.943  31.013  0.00  0.00    +0.028 A 
ATOM     44  C   UNL     1      -4.607  14.422  32.105  0.00  0.00    +0.002 A 
ATOM     45  C   UNL     1      -3.528  13.700  32.602  0.00  0.00    +0.002 A 
ATOM     46  C   UNL     1      -3.177  12.490  32.012  0.00  0.00    +0.028 A 
ATOM     47  C   UNL     1      -3.908  12.022  30.910  0.00  0.00    +0.072 A 
ATOM     48  N   UNL     1      -3.574  10.809  30.287  0.00  0.00    -0.291 N 
ATOM     49  C   UNL     1      -2.642   9.862  30.629  0.00  0.00    +0.207 A 
ATOM     50  N   UNL     1      -2.687   8.818  29.828  0.00  0.00    -0.216 NA
BRANCH  41  51
ATOM     51  C   UNL     1      -6.897  12.940  28.681  0.00  0.00    +0.085 C 
ATOM     52  C   UNL     1      -6.670  14.448  28.457  0.00  0.00    +0.030 C 
ATOM     53  C   UNL     1      -8.141  12.707  29.537  0.00  0.00    +0.030 C 
ENDBRANCH  41  51
ENDBRANCH  35  37
ENDBRANCH  31  33
ENDBRANCH  30  31
ENDBRANCH   1  30
TORSDOF 15
