REMARK VINA RESULT:    -5.036      2.509      3.354
REMARK INTER + INTRA:         -11.699
REMARK INTER:                  -9.422
REMARK INTRA:                  -2.277
REMARK UNBOUND:                -2.541
REMARK  Name = lig_assembled_23.pdb
REMARK  18 active torsions:
REMARK  status: ('A' for Active; 'I' for Inactive)
REMARK    1  A    between atoms: _2  and  _10
REMARK    2  A    between atoms: _3  and  _41
REMARK    3  A    between atoms: _5  and  _21
REMARK    4  A    between atoms: _7  and  _8
REMARK    5  A    between atoms: _7  and  _21
REMARK    6  A    between atoms: _12  and  _41
REMARK    7  A    between atoms: _17  and  _37
REMARK    8  A    between atoms: _19  and  _25
REMARK    9  A    between atoms: _20  and  _24
REMARK   10  A    between atoms: _24  and  _25
REMARK   11  A    between atoms: _27  and  _28
REMARK   12  A    between atoms: _29  and  _30
REMARK   13  A    between atoms: _31  and  _33
REMARK   14  A    between atoms: _33  and  _34
REMARK   15  A    between atoms: _33  and  _35
REMARK   16  A    between atoms: _35  and  _36
REMARK   17  A    between atoms: _35  and  _37
REMARK   18  A    between atoms: _38  and  _40
REMARK                            x       y       z     vdW  Elec       q    Type
REMARK                         _______ _______ _______ _____ _____    ______ ____
ROOT
ATOM      1  C   UNL     1      -4.741  12.634  21.535  0.00  0.00    +0.141 C 
ENDROOT
BRANCH   1   4
ATOM      2  C   UNL     1      -6.835  12.767  20.230  0.00  0.00    +0.401 C 
ATOM      3  O   UNL     1      -7.423  13.455  21.067  0.00  0.00    -0.226 OA
ATOM      4  N   UNL     1      -5.582  12.333  20.370  0.00  0.00    -0.279 N 
ATOM      5  H   UNL     1      -5.189  11.765  19.632  0.00  0.00    +0.152 HD
BRANCH   2   6
ATOM      6  O   UNL     1      -7.520  12.395  19.031  0.00  0.00    -0.444 OA
BRANCH   6   7
ATOM      7  C   UNL     1      -7.779  10.988  19.045  0.00  0.00    +0.292 C 
BRANCH   7   9
ATOM      8  N   UNL     1      -5.874   9.429  19.276  0.00  0.00    -0.131 NA
ATOM      9  C   UNL     1      -6.631  10.250  18.490  0.00  0.00    +0.121 A 
ATOM     10  C   UNL     1      -6.130  10.230  17.207  0.00  0.00    +0.143 A 
ATOM     11  N   UNL     1      -5.062   9.365  17.256  0.00  0.00    -0.220 N 
ATOM     12  N   UNL     1      -4.922   8.898  18.521  0.00  0.00    -0.060 NA
BRANCH  11  13
ATOM     13  C   UNL     1      -4.184   8.972  16.213  0.00  0.00    +0.069 A 
ATOM     14  C   UNL     1      -4.048   9.790  15.082  0.00  0.00    +0.056 A 
ATOM     15  C   UNL     1      -3.210   9.388  14.036  0.00  0.00    +0.107 A 
ATOM     16  C   UNL     1      -2.487   8.197  14.112  0.00  0.00    +0.028 A 
ATOM     17  C   UNL     1      -2.613   7.392  15.244  0.00  0.00    +0.004 A 
ATOM     18  C   UNL     1      -3.461   7.773  16.290  0.00  0.00    +0.028 A 
BRANCH  15  19
ATOM     19  S   UNL     1      -3.095  10.403  12.593  0.00  0.00    +0.056 S 
ATOM     20  O   UNL     1      -4.393  10.975  12.321  0.00  0.00    -0.153 OA
ATOM     21  O   UNL     1      -1.891  11.199  12.665  0.00  0.00    -0.153 OA
BRANCH  19  22
ATOM     22  N   UNL     1      -2.807   9.268  11.390  0.00  0.00    -0.204 NA
ATOM     23  H   UNL     1      -3.626   9.180  10.790  0.00  0.00    +0.144 HD
ATOM     24  H   UNL     1      -2.500   8.388  11.806  0.00  0.00    +0.144 HD
ENDBRANCH  19  22
ENDBRANCH  15  19
ENDBRANCH  11  13
ENDBRANCH   7   9
ENDBRANCH   6   7
ENDBRANCH   2   6
ENDBRANCH   1   4
BRANCH   1  25
ATOM     25  C   UNL     1      -4.373  11.374  22.312  0.00  0.00    +0.163 C 
BRANCH  25  26
ATOM     26  O   UNL     1      -4.032  10.317  21.400  0.00  0.00    -0.388 OA
ATOM     27  H   UNL     1      -4.533  10.420  20.588  0.00  0.00    +0.210 HD
ENDBRANCH  25  26
BRANCH  25  28
ATOM     28  C   UNL     1      -3.202  11.680  23.262  0.00  0.00    +0.175 C 
BRANCH  28  29
ATOM     29  C   UNL     1      -3.425  11.088  24.662  0.00  0.00    +0.176 C 
ATOM     30  O   UNL     1      -3.247   9.648  24.572  0.00  0.00    -0.332 OA
ATOM     31  C   UNL     1      -3.318   8.920  25.842  0.00  0.00    +0.277 C 
ATOM     32  C   UNL     1      -4.644   9.238  26.575  0.00  0.00    +0.110 C 
ATOM     33  C   UNL     1      -4.893  10.759  26.667  0.00  0.00    +0.143 C 
ATOM     34  C   UNL     1      -4.792  11.415  25.290  0.00  0.00    +0.133 C 
BRANCH  34  35
ATOM     35  N   UNL     1      -4.944  12.875  25.403  0.00  0.00    -0.308 N 
ATOM     36  H   UNL     1      -4.185  13.398  25.815  0.00  0.00    +0.149 HD
ATOM     37  C   UNL     1      -6.021  13.553  24.996  0.00  0.00    +0.210 C 
ATOM     38  C   UNL     1      -7.172  12.724  24.395  0.00  0.00    +0.109 C 
ATOM     39  O   UNL     1      -6.115  14.777  25.089  0.00  0.00    -0.276 OA
ENDBRANCH  34  35
BRANCH  31  40
ATOM     40  C   UNL     1      -2.126   9.287  26.750  0.00  0.00    +0.414 C 
ATOM     41  O   UNL     1      -1.156   9.886  26.288  0.00  0.00    -0.240 OA
ATOM     42  O   UNL     1      -2.135   8.984  27.944  0.00  0.00    -0.240 OA
ENDBRANCH  31  40
BRANCH  33  43
ATOM     43  O   UNL     1      -6.191  11.002  27.211  0.00  0.00    -0.390 OA
ATOM     44  H   UNL     1      -6.357  11.948  27.233  0.00  0.00    +0.210 HD
ENDBRANCH  33  43
BRANCH  31  45
ATOM     45  O   UNL     1      -3.288   7.499  25.548  0.00  0.00    -0.343 OA
ATOM     46  C   UNL     1      -4.133   7.085  24.445  0.00  0.00    +0.198 C 
ENDBRANCH  31  45
ENDBRANCH  28  29
BRANCH  28  47
ATOM     47  O   UNL     1      -2.994  13.103  23.352  0.00  0.00    -0.387 OA
ATOM     48  H   UNL     1      -2.148  13.278  23.771  0.00  0.00    +0.210 HD
ENDBRANCH  28  47
ENDBRANCH  25  28
ENDBRANCH   1  25
TORSDOF 16
