REMARK VINA RESULT:    -4.556      2.305      4.503
REMARK INTER + INTRA:         -12.548
REMARK INTER:                  -8.070
REMARK INTRA:                  -4.478
REMARK UNBOUND:                -3.997
REMARK  Name = lig_assembled_68.pdb
REMARK  19 active torsions:
REMARK  status: ('A' for Active; 'I' for Inactive)
REMARK    1  A    between atoms: _2  and  _9
REMARK    2  A    between atoms: _4  and  _21
REMARK    3  A    between atoms: _6  and  _7
REMARK    4  A    between atoms: _6  and  _21
REMARK    5  A    between atoms: _9  and  _10
REMARK    6  A    between atoms: _10  and  _11
REMARK    7  A    between atoms: _10  and  _16
REMARK    8  A    between atoms: _17  and  _37
REMARK    9  A    between atoms: _19  and  _25
REMARK   10  A    between atoms: _20  and  _24
REMARK   11  A    between atoms: _24  and  _25
REMARK   12  A    between atoms: _27  and  _28
REMARK   13  A    between atoms: _29  and  _30
REMARK   14  A    between atoms: _31  and  _33
REMARK   15  A    between atoms: _33  and  _34
REMARK   16  A    between atoms: _33  and  _35
REMARK   17  A    between atoms: _35  and  _36
REMARK   18  A    between atoms: _35  and  _37
REMARK   19  A    between atoms: _38  and  _40
REMARK                            x       y       z     vdW  Elec       q    Type
REMARK                         _______ _______ _______ _____ _____    ______ ____
ROOT
ATOM      1  C   UNL     1      -4.222  13.092  29.896  0.00  0.00    +0.163 C 
ENDROOT
BRANCH   1   2
ATOM      2  O   UNL     1      -2.857  12.920  30.312  0.00  0.00    -0.388 OA
ATOM      3  H   UNL     1      -2.332  12.614  29.568  0.00  0.00    +0.210 HD
ENDBRANCH   1   2
BRANCH   1   4
ATOM      4  C   UNL     1      -4.843  11.748  29.478  0.00  0.00    +0.175 C 
BRANCH   4   5
ATOM      5  C   UNL     1      -3.799  10.785  28.896  0.00  0.00    +0.176 C 
ATOM      6  O   UNL     1      -4.265  10.361  27.585  0.00  0.00    -0.332 OA
ATOM      7  C   UNL     1      -3.339   9.513  26.827  0.00  0.00    +0.277 C 
ATOM      8  C   UNL     1      -2.930   8.276  27.663  0.00  0.00    +0.110 C 
ATOM      9  C   UNL     1      -2.458   8.674  29.077  0.00  0.00    +0.143 C 
ATOM     10  C   UNL     1      -3.495   9.557  29.774  0.00  0.00    +0.133 C 
BRANCH  10  11
ATOM     11  N   UNL     1      -2.996  10.001  31.085  0.00  0.00    -0.308 N 
ATOM     12  H   UNL     1      -2.156  10.562  31.104  0.00  0.00    +0.149 HD
ATOM     13  C   UNL     1      -3.581   9.711  32.250  0.00  0.00    +0.210 C 
ATOM     14  C   UNL     1      -4.844   8.832  32.188  0.00  0.00    +0.109 C 
ATOM     15  O   UNL     1      -3.149  10.110  33.332  0.00  0.00    -0.276 OA
ENDBRANCH  10  11
BRANCH   7  16
ATOM     16  C   UNL     1      -2.076  10.304  26.427  0.00  0.00    +0.414 C 
ATOM     17  O   UNL     1      -0.982   9.744  26.379  0.00  0.00    -0.240 OA
ATOM     18  O   UNL     1      -2.152  11.502  26.151  0.00  0.00    -0.240 OA
ENDBRANCH   7  16
BRANCH   7  19
ATOM     19  O   UNL     1      -4.025   9.053  25.635  0.00  0.00    -0.343 OA
ATOM     20  C   UNL     1      -5.465   8.938  25.763  0.00  0.00    +0.198 C 
ENDBRANCH   7  19
BRANCH   9  21
ATOM     21  O   UNL     1      -2.237   7.500  29.860  0.00  0.00    -0.390 OA
ATOM     22  H   UNL     1      -3.080   7.149  30.157  0.00  0.00    +0.210 HD
ENDBRANCH   9  21
ENDBRANCH   4   5
BRANCH   4  23
ATOM     23  O   UNL     1      -5.904  11.966  28.527  0.00  0.00    -0.387 OA
ATOM     24  H   UNL     1      -5.814  12.840  28.141  0.00  0.00    +0.210 HD
ENDBRANCH   4  23
ENDBRANCH   1   4
BRANCH   1  25
ATOM     25  C   UNL     1      -5.040  13.702  31.029  0.00  0.00    +0.141 C 
BRANCH  25  28
ATOM     26  C   UNL     1      -7.057  14.971  30.379  0.00  0.00    +0.401 C 
ATOM     27  O   UNL     1      -6.484  16.063  30.375  0.00  0.00    -0.226 OA
ATOM     28  N   UNL     1      -6.461  13.817  30.679  0.00  0.00    -0.279 N 
ATOM     29  H   UNL     1      -7.017  12.974  30.664  0.00  0.00    +0.152 HD
BRANCH  26  30
ATOM     30  O   UNL     1      -8.448  14.916  30.049  0.00  0.00    -0.444 OA
BRANCH  30  31
ATOM     31  C   UNL     1      -8.664  15.545  28.783  0.00  0.00    +0.292 C 
BRANCH  31  33
ATOM     32  N   UNL     1      -8.412  13.308  27.743  0.00  0.00    -0.131 NA
ATOM     33  C   UNL     1      -8.221  14.665  27.687  0.00  0.00    +0.120 A 
ATOM     34  C   UNL     1      -7.584  14.980  26.510  0.00  0.00    +0.137 A 
ATOM     35  N   UNL     1      -7.423  13.776  25.890  0.00  0.00    -0.249 N 
ATOM     36  N   UNL     1      -7.911  12.772  26.638  0.00  0.00    -0.065 NA
BRANCH  35  37
ATOM     37  C   UNL     1      -6.731  13.504  24.648  0.00  0.00    +0.181 C 
BRANCH  37  38
ATOM     38  C   UNL     1      -5.206  13.543  24.815  0.00  0.00    +0.166 C 
BRANCH  38  39
ATOM     39  C   UNL     1      -4.429  13.125  23.575  0.00  0.00    -0.017 A 
ATOM     40  C   UNL     1      -4.158  11.759  23.371  0.00  0.00    +0.006 A 
ATOM     41  C   UNL     1      -3.471  11.330  22.233  0.00  0.00    +0.000 A 
ATOM     42  C   UNL     1      -3.049  12.253  21.282  0.00  0.00    +0.000 A 
ATOM     43  C   UNL     1      -3.323  13.604  21.458  0.00  0.00    +0.000 A 
ATOM     44  C   UNL     1      -4.012  14.038  22.594  0.00  0.00    +0.006 A 
ENDBRANCH  38  39
BRANCH  38  45
ATOM     45  O   UNL     1      -4.831  12.669  25.885  0.00  0.00    -0.385 OA
ATOM     46  H   UNL     1      -5.178  13.037  26.714  0.00  0.00    +0.210 HD
ENDBRANCH  38  45
ENDBRANCH  37  38
ENDBRANCH  35  37
ENDBRANCH  31  33
ENDBRANCH  30  31
ENDBRANCH  26  30
ENDBRANCH  25  28
ENDBRANCH   1  25
TORSDOF 17
