REMARK VINA RESULT:    -3.276      2.572      4.892
REMARK INTER + INTRA:         -10.955
REMARK INTER:                  -7.630
REMARK INTRA:                  -3.325
REMARK UNBOUND:                -4.711
REMARK  Name = lig_assembled_62.pdb
REMARK  20 active torsions:
REMARK  status: ('A' for Active; 'I' for Inactive)
REMARK    1  A    between atoms: _2  and  _10
REMARK    2  A    between atoms: _5  and  _19
REMARK    3  A    between atoms: _6  and  _10
REMARK    4  A    between atoms: _7  and  _8
REMARK    5  A    between atoms: _7  and  _19
REMARK    6  A    between atoms: _10  and  _11
REMARK    7  A    between atoms: _11  and  _14
REMARK    8  A    between atoms: _12  and  _14
REMARK    9  A    between atoms: _15  and  _35
REMARK   10  A    between atoms: _17  and  _23
REMARK   11  A    between atoms: _18  and  _22
REMARK   12  A    between atoms: _22  and  _23
REMARK   13  A    between atoms: _25  and  _26
REMARK   14  A    between atoms: _27  and  _28
REMARK   15  A    between atoms: _29  and  _31
REMARK   16  A    between atoms: _31  and  _32
REMARK   17  A    between atoms: _31  and  _33
REMARK   18  A    between atoms: _33  and  _34
REMARK   19  A    between atoms: _33  and  _35
REMARK   20  A    between atoms: _36  and  _38
REMARK                            x       y       z     vdW  Elec       q    Type
REMARK                         _______ _______ _______ _____ _____    ______ ____
ROOT
ATOM      1  C   UNL     1      -3.053  11.263  26.454  0.00  0.00    +0.163 C 
ENDROOT
BRANCH   1   2
ATOM      2  O   UNL     1      -1.982  11.677  25.590  0.00  0.00    -0.388 OA
ATOM      3  H   UNL     1      -1.812  12.614  25.717  0.00  0.00    +0.210 HD
ENDBRANCH   1   2
BRANCH   1   4
ATOM      4  C   UNL     1      -4.211  10.656  25.643  0.00  0.00    +0.175 C 
BRANCH   4   5
ATOM      5  C   UNL     1      -5.110  11.736  25.024  0.00  0.00    +0.176 C 
ATOM      6  O   UNL     1      -4.372  12.365  23.940  0.00  0.00    -0.332 OA
ATOM      7  C   UNL     1      -5.117  13.356  23.158  0.00  0.00    +0.277 C 
ATOM      8  C   UNL     1      -5.710  14.444  24.087  0.00  0.00    +0.110 C 
ATOM      9  C   UNL     1      -6.477  13.823  25.273  0.00  0.00    +0.143 C 
ATOM     10  C   UNL     1      -5.611  12.804  26.014  0.00  0.00    +0.133 C 
BRANCH  10  11
ATOM     11  N   UNL     1      -6.381  12.156  27.087  0.00  0.00    -0.308 N 
ATOM     12  H   UNL     1      -7.125  11.526  26.820  0.00  0.00    +0.149 HD
ATOM     13  C   UNL     1      -6.163  12.347  28.391  0.00  0.00    +0.210 C 
ATOM     14  C   UNL     1      -5.040  13.333  28.765  0.00  0.00    +0.109 C 
ATOM     15  O   UNL     1      -6.814  11.779  29.269  0.00  0.00    -0.276 OA
ENDBRANCH  10  11
BRANCH   7  16
ATOM     16  C   UNL     1      -6.253  12.683  22.361  0.00  0.00    +0.414 C 
ATOM     17  O   UNL     1      -7.173  13.359  21.901  0.00  0.00    -0.240 OA
ATOM     18  O   UNL     1      -6.251  11.465  22.178  0.00  0.00    -0.240 OA
ENDBRANCH   7  16
BRANCH   7  19
ATOM     19  O   UNL     1      -4.189  13.994  22.242  0.00  0.00    -0.343 OA
ATOM     20  C   UNL     1      -3.348  13.083  21.491  0.00  0.00    +0.198 C 
ENDBRANCH   7  19
BRANCH   9  21
ATOM     21  O   UNL     1      -6.875  14.851  26.181  0.00  0.00    -0.390 OA
ATOM     22  H   UNL     1      -7.712  14.614  26.587  0.00  0.00    +0.210 HD
ENDBRANCH   9  21
ENDBRANCH   4   5
BRANCH   4  23
ATOM     23  O   UNL     1      -4.993   9.776  26.476  0.00  0.00    -0.387 OA
ATOM     24  H   UNL     1      -5.097   8.929  26.037  0.00  0.00    +0.210 HD
ENDBRANCH   4  23
ENDBRANCH   1   4
BRANCH   1  25
ATOM     25  C   UNL     1      -2.543  10.236  27.461  0.00  0.00    +0.141 C 
BRANCH  25  28
ATOM     26  C   UNL     1      -3.766   9.860  29.574  0.00  0.00    +0.401 C 
ATOM     27  O   UNL     1      -4.324   8.833  29.179  0.00  0.00    -0.226 OA
ATOM     28  N   UNL     1      -2.923  10.582  28.836  0.00  0.00    -0.279 N 
ATOM     29  H   UNL     1      -2.524  11.415  29.245  0.00  0.00    +0.152 HD
BRANCH  26  30
ATOM     30  O   UNL     1      -4.028  10.325  30.901  0.00  0.00    -0.444 OA
BRANCH  30  31
ATOM     31  C   UNL     1      -2.795  10.665  31.540  0.00  0.00    +0.292 C 
BRANCH  31  33
ATOM     32  N   UNL     1      -1.706  12.728  32.369  0.00  0.00    -0.131 NA
ATOM     33  C   UNL     1      -2.850  12.043  32.063  0.00  0.00    +0.120 A 
ATOM     34  C   UNL     1      -3.938  12.847  32.323  0.00  0.00    +0.138 A 
ATOM     35  N   UNL     1      -3.392  14.003  32.800  0.00  0.00    -0.237 N 
ATOM     36  N   UNL     1      -2.047  13.929  32.817  0.00  0.00    -0.065 NA
BRANCH  35  37
ATOM     37  C   UNL     1      -4.046  15.229  33.225  0.00  0.00    +0.219 C 
BRANCH  37  38
ATOM     38  C   UNL     1      -4.529  16.016  32.017  0.00  0.00    +0.237 C 
ATOM     39  O   UNL     1      -5.604  16.609  31.962  0.00  0.00    -0.274 OA
ATOM     40  N   UNL     1      -3.657  16.097  30.965  0.00  0.00    -0.328 N 
ATOM     41  H   UNL     1      -2.722  15.711  30.978  0.00  0.00    +0.145 HD
ATOM     42  H   UNL     1      -3.950  16.623  30.150  0.00  0.00    +0.145 HD
ENDBRANCH  37  38
BRANCH  37  43
ATOM     43  C   UNL     1      -3.107  16.071  34.086  0.00  0.00    +0.195 C 
BRANCH  43  44
ATOM     44  O   UNL     1      -2.748  17.262  33.372  0.00  0.00    -0.380 OA
ATOM     45  C   UNL     1      -1.942  18.128  34.163  0.00  0.00    +0.194 C 
ENDBRANCH  43  44
ENDBRANCH  37  43
ENDBRANCH  35  37
ENDBRANCH  31  33
ENDBRANCH  30  31
ENDBRANCH  26  30
ENDBRANCH  25  28
ENDBRANCH   1  25
TORSDOF 17
