REMARK VINA RESULT:    -5.348      2.904     10.973
REMARK INTER + INTRA:         -14.368
REMARK INTER:                  -9.860
REMARK INTRA:                  -4.508
REMARK UNBOUND:                -3.392
REMARK  Name = lig_assembled_47.pdb
REMARK  22 active torsions:
REMARK  status: ('A' for Active; 'I' for Inactive)
REMARK    1  A    between atoms: _2  and  _9
REMARK    2  A    between atoms: _4  and  _30
REMARK    3  A    between atoms: _6  and  _7
REMARK    4  A    between atoms: _6  and  _30
REMARK    5  A    between atoms: _9  and  _10
REMARK    6  A    between atoms: _10  and  _11
REMARK    7  A    between atoms: _10  and  _12
REMARK    8  A    between atoms: _11  and  _24
REMARK    9  A    between atoms: _12  and  _13
REMARK   10  A    between atoms: _12  and  _19
REMARK   11  A    between atoms: _26  and  _46
REMARK   12  A    between atoms: _28  and  _34
REMARK   13  A    between atoms: _29  and  _33
REMARK   14  A    between atoms: _33  and  _34
REMARK   15  A    between atoms: _36  and  _37
REMARK   16  A    between atoms: _38  and  _39
REMARK   17  A    between atoms: _40  and  _42
REMARK   18  A    between atoms: _42  and  _43
REMARK   19  A    between atoms: _42  and  _44
REMARK   20  A    between atoms: _44  and  _45
REMARK   21  A    between atoms: _44  and  _46
REMARK   22  A    between atoms: _47  and  _49
REMARK                            x       y       z     vdW  Elec       q    Type
REMARK                         _______ _______ _______ _____ _____    ______ ____
ROOT
ATOM      1  C   UNL     1      -2.258   7.584  26.948  0.00  0.00    +0.401 C 
ATOM      2  O   UNL     1      -1.662   6.667  26.378  0.00  0.00    -0.226 OA
ATOM      3  N   UNL     1      -3.292   8.241  26.421  0.00  0.00    -0.279 N 
ATOM      4  H   UNL     1      -3.722   8.973  26.970  0.00  0.00    +0.152 HD
ENDROOT
BRANCH   3   5
ATOM      5  C   UNL     1      -3.841   7.961  25.089  0.00  0.00    +0.141 C 
BRANCH   5   6
ATOM      6  C   UNL     1      -5.331   8.280  25.009  0.00  0.00    +0.163 C 
BRANCH   6   7
ATOM      7  O   UNL     1      -5.770   8.886  26.236  0.00  0.00    -0.388 OA
ATOM      8  H   UNL     1      -5.095   9.491  26.555  0.00  0.00    +0.210 HD
ENDBRANCH   6   7
BRANCH   6   9
ATOM      9  C   UNL     1      -5.594   9.210  23.812  0.00  0.00    +0.175 C 
BRANCH   9  10
ATOM     10  C   UNL     1      -4.725  10.475  23.861  0.00  0.00    +0.176 C 
ATOM     11  O   UNL     1      -5.115  11.240  25.035  0.00  0.00    -0.332 OA
ATOM     12  C   UNL     1      -4.315  12.438  25.305  0.00  0.00    +0.277 C 
ATOM     13  C   UNL     1      -4.289  13.363  24.063  0.00  0.00    +0.110 C 
ATOM     14  C   UNL     1      -3.911  12.588  22.784  0.00  0.00    +0.143 C 
ATOM     15  C   UNL     1      -4.804  11.360  22.602  0.00  0.00    +0.133 C 
BRANCH  15  16
ATOM     16  N   UNL     1      -4.378  10.582  21.428  0.00  0.00    -0.308 N 
ATOM     17  H   UNL     1      -3.458  10.164  21.448  0.00  0.00    +0.149 HD
ATOM     18  C   UNL     1      -5.127  10.393  20.338  0.00  0.00    +0.210 C 
ATOM     19  C   UNL     1      -6.512  11.065  20.329  0.00  0.00    +0.109 C 
ATOM     20  O   UNL     1      -4.749   9.724  19.375  0.00  0.00    -0.276 OA
ENDBRANCH  15  16
BRANCH  12  21
ATOM     21  C   UNL     1      -2.871  12.056  25.693  0.00  0.00    +0.414 C 
ATOM     22  O   UNL     1      -2.666  11.205  26.557  0.00  0.00    -0.240 OA
ATOM     23  O   UNL     1      -1.912  12.599  25.142  0.00  0.00    -0.240 OA
ENDBRANCH  12  21
BRANCH  12  24
ATOM     24  O   UNL     1      -4.940  13.158  26.399  0.00  0.00    -0.343 OA
ATOM     25  C   UNL     1      -6.355  12.897  26.574  0.00  0.00    +0.198 C 
ENDBRANCH  12  24
BRANCH  14  26
ATOM     26  O   UNL     1      -4.047  13.440  21.646  0.00  0.00    -0.390 OA
ATOM     27  H   UNL     1      -3.653  13.017  20.879  0.00  0.00    +0.210 HD
ENDBRANCH  14  26
ENDBRANCH   9  10
BRANCH   9  28
ATOM     28  O   UNL     1      -6.990   9.567  23.758  0.00  0.00    -0.387 OA
ATOM     29  H   UNL     1      -7.322   9.429  22.868  0.00  0.00    +0.210 HD
ENDBRANCH   9  28
ENDBRANCH   6   9
ENDBRANCH   5   6
ENDBRANCH   3   5
BRANCH   1  30
ATOM     30  O   UNL     1      -1.834   7.982  28.254  0.00  0.00    -0.444 OA
BRANCH  30  31
ATOM     31  C   UNL     1      -2.953   7.962  29.145  0.00  0.00    +0.292 C 
BRANCH  31  33
ATOM     32  N   UNL     1      -4.670   9.737  28.887  0.00  0.00    -0.131 NA
ATOM     33  C   UNL     1      -3.462   9.327  29.388  0.00  0.00    +0.120 A 
ATOM     34  C   UNL     1      -2.883  10.376  30.068  0.00  0.00    +0.137 A 
ATOM     35  N   UNL     1      -3.763  11.405  29.904  0.00  0.00    -0.251 N 
ATOM     36  N   UNL     1      -4.845  11.012  29.211  0.00  0.00    -0.065 NA
BRANCH  35  37
ATOM     37  C   UNL     1      -3.575  12.809  30.239  0.00  0.00    +0.160 C 
BRANCH  37  38
ATOM     38  C   UNL     1      -3.597  13.097  31.743  0.00  0.00    +0.131 C 
BRANCH  38  39
ATOM     39  C   UNL     1      -2.184  13.490  32.154  0.00  0.00    +0.311 C 
ATOM     40  O   UNL     1      -1.713  13.222  33.249  0.00  0.00    -0.251 OA
BRANCH  39  41
ATOM     41  O   UNL     1      -1.413  14.064  31.207  0.00  0.00    -0.480 OA
ATOM     42  H   UNL     1      -0.822  13.501  30.681  0.00  0.00    +0.295 HD
ENDBRANCH  39  41
ENDBRANCH  38  39
BRANCH  38  43
ATOM     43  C   UNL     1      -4.651  14.160  32.188  0.00  0.00    +0.064 C 
BRANCH  43  44
ATOM     44  C   UNL     1      -5.088  15.154  31.110  0.00  0.00    -0.039 A 
ATOM     45  C   UNL     1      -4.462  16.412  31.024  0.00  0.00    +0.004 A 
ATOM     46  C   UNL     1      -4.838  17.343  30.051  0.00  0.00    +0.000 A 
ATOM     47  C   UNL     1      -5.859  17.042  29.155  0.00  0.00    +0.000 A 
ATOM     48  C   UNL     1      -6.504  15.812  29.236  0.00  0.00    +0.000 A 
ATOM     49  C   UNL     1      -6.116  14.872  30.198  0.00  0.00    +0.004 A 
ENDBRANCH  43  44
BRANCH  43  50
ATOM     50  C   UNL     1      -5.833  13.475  32.886  0.00  0.00    -0.039 A 
ATOM     51  C   UNL     1      -6.102  12.116  32.657  0.00  0.00    +0.004 A 
ATOM     52  C   UNL     1      -7.273  11.531  33.151  0.00  0.00    +0.000 A 
ATOM     53  C   UNL     1      -8.173  12.285  33.900  0.00  0.00    +0.000 A 
ATOM     54  C   UNL     1      -7.903  13.621  34.167  0.00  0.00    +0.000 A 
ATOM     55  C   UNL     1      -6.743  14.211  33.664  0.00  0.00    +0.004 A 
ENDBRANCH  43  50
ENDBRANCH  38  43
ENDBRANCH  37  38
ENDBRANCH  35  37
ENDBRANCH  31  33
ENDBRANCH  30  31
ENDBRANCH   1  30
TORSDOF 20
