REMARK VINA RESULT:    -4.875      5.253     10.139
REMARK INTER + INTRA:         -11.853
REMARK INTER:                  -8.916
REMARK INTRA:                  -2.937
REMARK UNBOUND:                -2.560
REMARK  Name = lig_assembled_18.pdb
REMARK  19 active torsions:
REMARK  status: ('A' for Active; 'I' for Inactive)
REMARK    1  A    between atoms: _2  and  _10
REMARK    2  A    between atoms: _3  and  _12
REMARK    3  A    between atoms: _5  and  _21
REMARK    4  A    between atoms: _7  and  _8
REMARK    5  A    between atoms: _7  and  _21
REMARK    6  A    between atoms: _10  and  _11
REMARK    7  A    between atoms: _12  and  _13
REMARK    8  A    between atoms: _17  and  _37
REMARK    9  A    between atoms: _19  and  _25
REMARK   10  A    between atoms: _20  and  _24
REMARK   11  A    between atoms: _24  and  _25
REMARK   12  A    between atoms: _27  and  _28
REMARK   13  A    between atoms: _29  and  _30
REMARK   14  A    between atoms: _31  and  _33
REMARK   15  A    between atoms: _33  and  _34
REMARK   16  A    between atoms: _33  and  _35
REMARK   17  A    between atoms: _35  and  _36
REMARK   18  A    between atoms: _35  and  _37
REMARK   19  A    between atoms: _38  and  _40
REMARK                            x       y       z     vdW  Elec       q    Type
REMARK                         _______ _______ _______ _____ _____    ______ ____
ROOT
ATOM      1  C   UNL     1      -6.527   9.650  23.316  0.00  0.00    +0.163 C 
ENDROOT
BRANCH   1   2
ATOM      2  O   UNL     1      -7.243   9.615  24.561  0.00  0.00    -0.388 OA
ATOM      3  H   UNL     1      -7.241   8.719  24.907  0.00  0.00    +0.210 HD
ENDBRANCH   1   2
BRANCH   1   4
ATOM      4  C   UNL     1      -5.230   8.827  23.404  0.00  0.00    +0.175 C 
BRANCH   4   5
ATOM      5  C   UNL     1      -4.108   9.591  24.122  0.00  0.00    +0.176 C 
ATOM      6  O   UNL     1      -4.418   9.610  25.542  0.00  0.00    -0.332 OA
ATOM      7  C   UNL     1      -3.397  10.210  26.406  0.00  0.00    +0.277 C 
ATOM      8  C   UNL     1      -3.056  11.642  25.926  0.00  0.00    +0.110 C 
ATOM      9  C   UNL     1      -2.749  11.677  24.414  0.00  0.00    +0.143 C 
ATOM     10  C   UNL     1      -3.875  11.024  23.610  0.00  0.00    +0.133 C 
BRANCH  10  11
ATOM     11  N   UNL     1      -3.532  10.986  22.180  0.00  0.00    -0.308 N 
ATOM     12  H   UNL     1      -2.805  10.348  21.886  0.00  0.00    +0.149 HD
ATOM     13  C   UNL     1      -4.118  11.739  21.245  0.00  0.00    +0.210 C 
ATOM     14  C   UNL     1      -5.203  12.719  21.729  0.00  0.00    +0.109 C 
ATOM     15  O   UNL     1      -3.820  11.675  20.052  0.00  0.00    -0.276 OA
ENDBRANCH  10  11
BRANCH   7  16
ATOM     16  C   UNL     1      -2.116   9.351  26.418  0.00  0.00    +0.414 C 
ATOM     17  O   UNL     1      -1.010   9.887  26.469  0.00  0.00    -0.240 OA
ATOM     18  O   UNL     1      -2.188   8.122  26.375  0.00  0.00    -0.240 OA
ENDBRANCH   7  16
BRANCH   7  19
ATOM     19  O   UNL     1      -3.940  10.296  27.749  0.00  0.00    -0.343 OA
ATOM     20  C   UNL     1      -5.035  11.233  27.909  0.00  0.00    +0.198 C 
ENDBRANCH   7  19
BRANCH   9  21
ATOM     21  O   UNL     1      -2.590  13.031  23.986  0.00  0.00    -0.390 OA
ATOM     22  H   UNL     1      -3.249  13.582  24.414  0.00  0.00    +0.210 HD
ENDBRANCH   9  21
ENDBRANCH   4   5
BRANCH   4  23
ATOM     23  O   UNL     1      -4.800   8.436  22.085  0.00  0.00    -0.387 OA
ATOM     24  H   UNL     1      -5.367   8.847  21.428  0.00  0.00    +0.210 HD
ENDBRANCH   4  23
ENDBRANCH   1   4
BRANCH   1  25
ATOM     25  C   UNL     1      -7.403   9.102  22.194  0.00  0.00    +0.141 C 
BRANCH  25  28
ATOM     26  C   UNL     1      -6.894   9.746  19.864  0.00  0.00    +0.401 C 
ATOM     27  O   UNL     1      -6.267   8.713  19.616  0.00  0.00    -0.226 OA
ATOM     28  N   UNL     1      -7.454  10.013  21.044  0.00  0.00    -0.279 N 
ATOM     29  H   UNL     1      -7.940  10.892  21.154  0.00  0.00    +0.152 HD
BRANCH  26  30
ATOM     30  O   UNL     1      -7.039  10.733  18.839  0.00  0.00    -0.444 OA
BRANCH  30  31
ATOM     31  C   UNL     1      -7.143  10.089  17.567  0.00  0.00    +0.292 C 
BRANCH  31  33
ATOM     32  N   UNL     1      -5.046  11.237  16.910  0.00  0.00    -0.131 NA
ATOM     33  C   UNL     1      -5.845  10.125  16.866  0.00  0.00    +0.120 A 
ATOM     34  C   UNL     1      -5.228   9.160  16.104  0.00  0.00    +0.137 A 
ATOM     35  N   UNL     1      -4.046   9.731  15.736  0.00  0.00    -0.242 N 
ATOM     36  N   UNL     1      -3.950  10.990  16.205  0.00  0.00    -0.065 NA
BRANCH  35  37
ATOM     37  C   UNL     1      -3.026   9.209  14.859  0.00  0.00    +0.240 C 
BRANCH  37  38
ATOM     38  C   UNL     1      -2.862  10.044  13.609  0.00  0.00    +0.235 C 
ATOM     39  O   UNL     1      -1.870   9.955  12.889  0.00  0.00    -0.274 OA
ATOM     40  N   UNL     1      -3.930  10.867  13.309  0.00  0.00    -0.309 N 
ATOM     41  H   UNL     1      -4.647  11.041  13.999  0.00  0.00    +0.149 HD
BRANCH  40  42
ATOM     42  C   UNL     1      -3.923  11.714  12.135  0.00  0.00    +0.146 C 
BRANCH  42  43
ATOM     43  C   UNL     1      -3.334  13.044  12.478  0.00  0.00    +0.007 A 
ATOM     44  S   UNL     1      -1.724  13.429  12.033  0.00  0.00    -0.100 S 
ATOM     45  C   UNL     1      -1.811  14.958  12.793  0.00  0.00    +0.045 A 
ATOM     46  C   UNL     1      -3.045  15.185  13.362  0.00  0.00    +0.008 A 
ATOM     47  C   UNL     1      -3.926  14.082  13.172  0.00  0.00    +0.013 A 
ENDBRANCH  42  43
ENDBRANCH  40  42
ENDBRANCH  37  38
ENDBRANCH  35  37
ENDBRANCH  31  33
ENDBRANCH  30  31
ENDBRANCH  26  30
ENDBRANCH  25  28
ENDBRANCH   1  25
TORSDOF 17
