REMARK VINA RESULT:    -4.110      3.193      7.890
REMARK INTER + INTRA:         -10.588
REMARK INTER:                  -7.852
REMARK INTRA:                  -2.735
REMARK UNBOUND:                -2.754
REMARK  Name = lig_assembled_19.pdb
REMARK  20 active torsions:
REMARK  status: ('A' for Active; 'I' for Inactive)
REMARK    1  A    between atoms: _2  and  _9
REMARK    2  A    between atoms: _4  and  _18
REMARK    3  A    between atoms: _5  and  _11
REMARK    4  A    between atoms: _6  and  _7
REMARK    5  A    between atoms: _6  and  _18
REMARK    6  A    between atoms: _9  and  _10
REMARK    7  A    between atoms: _10  and  _13
REMARK    8  A    between atoms: _11  and  _13
REMARK    9  A    between atoms: _14  and  _34
REMARK   10  A    between atoms: _16  and  _22
REMARK   11  A    between atoms: _17  and  _21
REMARK   12  A    between atoms: _21  and  _22
REMARK   13  A    between atoms: _24  and  _25
REMARK   14  A    between atoms: _26  and  _27
REMARK   15  A    between atoms: _28  and  _30
REMARK   16  A    between atoms: _30  and  _31
REMARK   17  A    between atoms: _30  and  _32
REMARK   18  A    between atoms: _32  and  _33
REMARK   19  A    between atoms: _32  and  _34
REMARK   20  A    between atoms: _35  and  _37
REMARK                            x       y       z     vdW  Elec       q    Type
REMARK                         _______ _______ _______ _____ _____    ______ ____
ROOT
ATOM      1  C   UNL     1      -5.241   7.312  23.822  0.00  0.00    +0.163 C 
ENDROOT
BRANCH   1   2
ATOM      2  O   UNL     1      -4.084   6.816  24.515  0.00  0.00    -0.388 OA
ATOM      3  H   UNL     1      -4.049   5.859  24.437  0.00  0.00    +0.210 HD
ENDBRANCH   1   2
BRANCH   1   4
ATOM      4  C   UNL     1      -4.984   8.720  23.258  0.00  0.00    +0.175 C 
BRANCH   4   5
ATOM      5  C   UNL     1      -3.945   9.492  24.085  0.00  0.00    +0.176 C 
ATOM      6  O   UNL     1      -4.327   9.396  25.485  0.00  0.00    -0.332 OA
ATOM      7  C   UNL     1      -3.387   9.990  26.440  0.00  0.00    +0.277 C 
ATOM      8  C   UNL     1      -3.105  11.468  26.075  0.00  0.00    +0.110 C 
ATOM      9  C   UNL     1      -2.726  11.625  24.587  0.00  0.00    +0.143 C 
ATOM     10  C   UNL     1      -3.770  10.968  23.683  0.00  0.00    +0.133 C 
BRANCH  10  11
ATOM     11  N   UNL     1      -3.355  11.048  22.274  0.00  0.00    -0.308 N 
ATOM     12  H   UNL     1      -2.535  10.528  21.994  0.00  0.00    +0.149 HD
ATOM     13  C   UNL     1      -3.989  11.763  21.341  0.00  0.00    +0.210 C 
ATOM     14  C   UNL     1      -5.219  12.566  21.806  0.00  0.00    +0.109 C 
ATOM     15  O   UNL     1      -3.627  11.800  20.165  0.00  0.00    -0.276 OA
ENDBRANCH  10  11
BRANCH   7  16
ATOM     16  C   UNL     1      -2.060   9.203  26.463  0.00  0.00    +0.414 C 
ATOM     17  O   UNL     1      -2.068   7.973  26.447  0.00  0.00    -0.240 OA
ATOM     18  O   UNL     1      -0.982   9.798  26.498  0.00  0.00    -0.240 OA
ENDBRANCH   7  16
BRANCH   9  19
ATOM     19  O   UNL     1      -2.625  13.011  24.259  0.00  0.00    -0.390 OA
ATOM     20  H   UNL     1      -2.118  13.113  23.450  0.00  0.00    +0.210 HD
ENDBRANCH   9  19
BRANCH   7  21
ATOM     21  O   UNL     1      -4.000   9.953  27.755  0.00  0.00    -0.343 OA
ATOM     22  C   UNL     1      -3.741  11.114  28.584  0.00  0.00    +0.198 C 
ENDBRANCH   7  21
ENDBRANCH   4   5
BRANCH   4  23
ATOM     23  O   UNL     1      -6.218   9.462  23.192  0.00  0.00    -0.387 OA
ATOM     24  H   UNL     1      -6.254   9.950  22.366  0.00  0.00    +0.210 HD
ENDBRANCH   4  23
ENDBRANCH   1   4
BRANCH   1  25
ATOM     25  C   UNL     1      -5.613   6.367  22.684  0.00  0.00    +0.141 C 
BRANCH  25  28
ATOM     26  C   UNL     1      -6.111   6.892  20.322  0.00  0.00    +0.401 C 
ATOM     27  O   UNL     1      -5.228   6.157  19.874  0.00  0.00    -0.226 OA
ATOM     28  N   UNL     1      -6.357   7.056  21.622  0.00  0.00    -0.279 N 
ATOM     29  H   UNL     1      -7.097   7.689  21.892  0.00  0.00    +0.152 HD
BRANCH  26  30
ATOM     30  O   UNL     1      -6.930   7.628  19.409  0.00  0.00    -0.444 OA
BRANCH  30  31
ATOM     31  C   UNL     1      -6.905   9.015  19.757  0.00  0.00    +0.292 C 
BRANCH  31  33
ATOM     32  N   UNL     1      -6.637  11.023  18.329  0.00  0.00    -0.131 NA
ATOM     33  C   UNL     1      -6.188   9.791  18.729  0.00  0.00    +0.120 A 
ATOM     34  C   UNL     1      -5.044   9.481  18.028  0.00  0.00    +0.137 A 
ATOM     35  N   UNL     1      -4.859  10.558  17.214  0.00  0.00    -0.248 N 
ATOM     36  N   UNL     1      -5.812  11.485  17.399  0.00  0.00    -0.065 NA
BRANCH  35  37
ATOM     37  C   UNL     1      -3.798  10.773  16.255  0.00  0.00    +0.186 C 
BRANCH  37  38
ATOM     38  C   UNL     1      -4.322  11.378  14.956  0.00  0.00    +0.255 C 
BRANCH  38  39
ATOM     39  O   UNL     1      -3.256  11.769  14.068  0.00  0.00    -0.463 OA
BRANCH  39  40
ATOM     40  C   UNL     1      -3.034  10.949  13.007  0.00  0.00    +0.304 C 
ATOM     41  O   UNL     1      -1.977  10.868  12.396  0.00  0.00    -0.251 OA
ATOM     42  C   UNL     1      -4.249  10.129  12.701  0.00  0.00    +0.136 C 
ENDBRANCH  39  40
ENDBRANCH  38  39
ENDBRANCH  37  38
ENDBRANCH  35  37
ENDBRANCH  31  33
ENDBRANCH  30  31
ENDBRANCH  26  30
ENDBRANCH  25  28
ENDBRANCH   1  25
TORSDOF 17
