REMARK VINA RESULT:    -5.464      3.997      5.690
REMARK INTER + INTRA:         -12.708
REMARK INTER:                 -10.344
REMARK INTRA:                  -2.364
REMARK UNBOUND:                -2.453
REMARK  Name = lig_assembled_75.pdb
REMARK  19 active torsions:
REMARK  status: ('A' for Active; 'I' for Inactive)
REMARK    1  A    between atoms: _2  and  _9
REMARK    2  A    between atoms: _4  and  _23
REMARK    3  A    between atoms: _6  and  _7
REMARK    4  A    between atoms: _6  and  _23
REMARK    5  A    between atoms: _11  and  _12
REMARK    6  A    between atoms: _13  and  _14
REMARK    7  A    between atoms: _14  and  _17
REMARK    8  A    between atoms: _19  and  _39
REMARK    9  A    between atoms: _21  and  _27
REMARK   10  A    between atoms: _22  and  _26
REMARK   11  A    between atoms: _26  and  _27
REMARK   12  A    between atoms: _29  and  _30
REMARK   13  A    between atoms: _31  and  _32
REMARK   14  A    between atoms: _33  and  _35
REMARK   15  A    between atoms: _35  and  _36
REMARK   16  A    between atoms: _35  and  _37
REMARK   17  A    between atoms: _37  and  _38
REMARK   18  A    between atoms: _37  and  _39
REMARK   19  A    between atoms: _40  and  _42
REMARK                            x       y       z     vdW  Elec       q    Type
REMARK                         _______ _______ _______ _____ _____    ______ ____
ROOT
ATOM      1  C   UNL     1      -6.863  10.657  20.793  0.00  0.00    +0.141 C 
ENDROOT
BRANCH   1   4
ATOM      2  C   UNL     1      -5.612  11.198  18.733  0.00  0.00    +0.401 C 
ATOM      3  O   UNL     1      -5.346  10.022  18.472  0.00  0.00    -0.226 OA
ATOM      4  N   UNL     1      -6.310  11.586  19.800  0.00  0.00    -0.279 N 
ATOM      5  H   UNL     1      -6.469  12.575  19.933  0.00  0.00    +0.152 HD
BRANCH   2   6
ATOM      6  O   UNL     1      -5.149  12.226  17.852  0.00  0.00    -0.444 OA
BRANCH   6   7
ATOM      7  C   UNL     1      -5.725  12.041  16.557  0.00  0.00    +0.292 C 
BRANCH   7   9
ATOM      8  N   UNL     1      -3.545  11.299  15.655  0.00  0.00    -0.131 NA
ATOM      9  C   UNL     1      -4.675  12.052  15.521  0.00  0.00    +0.121 A 
ATOM     10  C   UNL     1      -4.616  12.748  14.336  0.00  0.00    +0.143 A 
ATOM     11  N   UNL     1      -3.416  12.386  13.770  0.00  0.00    -0.220 N 
ATOM     12  N   UNL     1      -2.783  11.508  14.589  0.00  0.00    -0.060 NA
BRANCH  11  13
ATOM     13  C   UNL     1      -2.834  12.828  12.554  0.00  0.00    +0.068 A 
ATOM     14  C   UNL     1      -1.542  13.380  12.569  0.00  0.00    +0.035 A 
ATOM     15  C   UNL     1      -0.963  13.887  11.397  0.00  0.00    -0.023 A 
ATOM     16  C   UNL     1      -1.672  13.775  10.194  0.00  0.00    +0.008 A 
ATOM     17  C   UNL     1      -2.947  13.206  10.169  0.00  0.00    +0.003 A 
ATOM     18  C   UNL     1      -3.534  12.741  11.345  0.00  0.00    +0.028 A 
BRANCH  15  19
ATOM     19  C   UNL     1       0.367  14.514  11.379  0.00  0.00    +0.015 C 
ATOM     20  C   UNL     1       0.616  15.750  11.843  0.00  0.00    +0.092 C 
BRANCH  20  21
ATOM     21  C   UNL     1       1.975  16.312  11.732  0.00  0.00    +0.330 C 
ATOM     22  O   UNL     1       2.781  16.015  10.869  0.00  0.00    -0.246 OA
BRANCH  21  23
ATOM     23  O   UNL     1       2.227  17.215  12.701  0.00  0.00    -0.478 OA
ATOM     24  H   UNL     1       1.447  17.558  13.172  0.00  0.00    +0.295 HD
ENDBRANCH  21  23
ENDBRANCH  20  21
ENDBRANCH  15  19
ENDBRANCH  11  13
ENDBRANCH   7   9
ENDBRANCH   6   7
ENDBRANCH   2   6
ENDBRANCH   1   4
BRANCH   1  25
ATOM     25  C   UNL     1      -6.178  10.800  22.148  0.00  0.00    +0.163 C 
BRANCH  25  26
ATOM     26  O   UNL     1      -7.161  10.816  23.197  0.00  0.00    -0.388 OA
ATOM     27  H   UNL     1      -6.906  11.455  23.866  0.00  0.00    +0.210 HD
ENDBRANCH  25  26
BRANCH  25  28
ATOM     28  C   UNL     1      -5.183   9.643  22.346  0.00  0.00    +0.175 C 
BRANCH  28  29
ATOM     29  C   UNL     1      -4.178   9.932  23.470  0.00  0.00    +0.176 C 
ATOM     30  O   UNL     1      -4.820   9.617  24.736  0.00  0.00    -0.332 OA
ATOM     31  C   UNL     1      -3.970   9.731  25.925  0.00  0.00    +0.277 C 
ATOM     32  C   UNL     1      -3.331  11.140  25.999  0.00  0.00    +0.110 C 
ATOM     33  C   UNL     1      -2.662  11.533  24.665  0.00  0.00    +0.143 C 
ATOM     34  C   UNL     1      -3.635  11.373  23.495  0.00  0.00    +0.133 C 
BRANCH  34  35
ATOM     35  N   UNL     1      -2.961  11.666  22.221  0.00  0.00    -0.308 N 
ATOM     36  H   UNL     1      -2.293  10.992  21.874  0.00  0.00    +0.149 HD
ATOM     37  C   UNL     1      -3.174  12.765  21.492  0.00  0.00    +0.210 C 
ATOM     38  C   UNL     1      -4.177  13.786  22.061  0.00  0.00    +0.109 C 
ATOM     39  O   UNL     1      -2.606  12.978  20.421  0.00  0.00    -0.276 OA
ENDBRANCH  34  35
BRANCH  31  40
ATOM     40  C   UNL     1      -2.859   8.661  25.908  0.00  0.00    +0.414 C 
ATOM     41  O   UNL     1      -1.775   8.884  26.446  0.00  0.00    -0.240 OA
ATOM     42  O   UNL     1      -3.046   7.576  25.357  0.00  0.00    -0.240 OA
ENDBRANCH  31  40
BRANCH  31  43
ATOM     43  O   UNL     1      -4.807   9.547  27.095  0.00  0.00    -0.343 OA
ATOM     44  C   UNL     1      -4.589  10.505  28.161  0.00  0.00    +0.198 C 
ENDBRANCH  31  43
BRANCH  33  45
ATOM     45  O   UNL     1      -2.221  12.889  24.728  0.00  0.00    -0.390 OA
ATOM     46  H   UNL     1      -1.521  12.969  25.380  0.00  0.00    +0.210 HD
ENDBRANCH  33  45
ENDBRANCH  28  29
BRANCH  28  47
ATOM     47  O   UNL     1      -4.485   9.373  21.113  0.00  0.00    -0.387 OA
ATOM     48  H   UNL     1      -3.792  10.025  20.988  0.00  0.00    +0.210 HD
ENDBRANCH  28  47
ENDBRANCH  25  28
ENDBRANCH   1  25
TORSDOF 17
