REMARK VINA RESULT:    -4.418      2.332      4.000
REMARK INTER + INTRA:         -11.118
REMARK INTER:                  -7.921
REMARK INTRA:                  -3.197
REMARK UNBOUND:                -3.213
REMARK  Name = lig_assembled_46.pdb
REMARK  17 active torsions:
REMARK  status: ('A' for Active; 'I' for Inactive)
REMARK    1  A    between atoms: _2  and  _9
REMARK    2  A    between atoms: _4  and  _19
REMARK    3  A    between atoms: _6  and  _7
REMARK    4  A    between atoms: _6  and  _19
REMARK    5  A    between atoms: _9  and  _10
REMARK    6  A    between atoms: _15  and  _35
REMARK    7  A    between atoms: _17  and  _23
REMARK    8  A    between atoms: _18  and  _22
REMARK    9  A    between atoms: _22  and  _23
REMARK   10  A    between atoms: _25  and  _26
REMARK   11  A    between atoms: _27  and  _28
REMARK   12  A    between atoms: _29  and  _31
REMARK   13  A    between atoms: _31  and  _32
REMARK   14  A    between atoms: _31  and  _33
REMARK   15  A    between atoms: _33  and  _34
REMARK   16  A    between atoms: _33  and  _35
REMARK   17  A    between atoms: _36  and  _38
REMARK                            x       y       z     vdW  Elec       q    Type
REMARK                         _______ _______ _______ _____ _____    ______ ____
ROOT
ATOM      1  C   UNL     1      -2.760  11.710  24.825  0.00  0.00    +0.163 C 
ENDROOT
BRANCH   1   2
ATOM      2  O   UNL     1      -2.945  11.597  26.245  0.00  0.00    -0.388 OA
ATOM      3  H   UNL     1      -3.195  12.451  26.605  0.00  0.00    +0.210 HD
ENDBRANCH   1   2
BRANCH   1   4
ATOM      4  C   UNL     1      -2.961  13.157  24.387  0.00  0.00    +0.141 C 
BRANCH   4   7
ATOM      5  C   UNL     1      -4.406  14.305  22.743  0.00  0.00    +0.401 C 
ATOM      6  O   UNL     1      -3.566  15.165  22.464  0.00  0.00    -0.226 OA
ATOM      7  N   UNL     1      -4.210  13.333  23.635  0.00  0.00    -0.279 N 
ATOM      8  H   UNL     1      -4.963  12.681  23.802  0.00  0.00    +0.152 HD
BRANCH   5   9
ATOM      9  O   UNL     1      -5.676  14.336  22.086  0.00  0.00    -0.444 OA
BRANCH   9  10
ATOM     10  C   UNL     1      -6.188  13.006  21.975  0.00  0.00    +0.292 C 
BRANCH  10  12
ATOM     11  N   UNL     1      -4.350  11.890  20.750  0.00  0.00    -0.131 NA
ATOM     12  C   UNL     1      -5.641  12.343  20.776  0.00  0.00    +0.120 A 
ATOM     13  C   UNL     1      -6.252  12.034  19.579  0.00  0.00    +0.137 A 
ATOM     14  N   UNL     1      -5.298  11.341  18.890  0.00  0.00    -0.247 N 
ATOM     15  N   UNL     1      -4.150  11.269  19.593  0.00  0.00    -0.065 NA
BRANCH  14  16
ATOM     16  C   UNL     1      -5.481  10.523  17.704  0.00  0.00    +0.180 C 
BRANCH  16  17
ATOM     17  C   UNL     1      -4.770  11.054  16.484  0.00  0.00    -0.026 A 
ATOM     18  C   UNL     1      -4.731  12.431  16.214  0.00  0.00    +0.005 A 
ATOM     19  C   UNL     1      -3.989  12.921  15.136  0.00  0.00    +0.000 A 
ATOM     20  C   UNL     1      -3.279  12.045  14.320  0.00  0.00    +0.000 A 
ATOM     21  C   UNL     1      -3.317  10.675  14.571  0.00  0.00    +0.000 A 
ATOM     22  C   UNL     1      -4.057  10.182  15.648  0.00  0.00    +0.005 A 
ENDBRANCH  16  17
ENDBRANCH  14  16
ENDBRANCH  10  12
ENDBRANCH   9  10
ENDBRANCH   5   9
ENDBRANCH   4   7
ENDBRANCH   1   4
BRANCH   1  23
ATOM     23  C   UNL     1      -3.745  10.803  24.067  0.00  0.00    +0.175 C 
BRANCH  23  24
ATOM     24  C   UNL     1      -4.140   9.567  24.889  0.00  0.00    +0.176 C 
ATOM     25  O   UNL     1      -2.918   8.928  25.352  0.00  0.00    -0.332 OA
ATOM     26  C   UNL     1      -3.102   7.782  26.247  0.00  0.00    +0.277 C 
ATOM     27  C   UNL     1      -4.028   6.727  25.593  0.00  0.00    +0.110 C 
ATOM     28  C   UNL     1      -5.327   7.365  25.056  0.00  0.00    +0.143 C 
ATOM     29  C   UNL     1      -5.019   8.548  24.138  0.00  0.00    +0.133 C 
BRANCH  29  30
ATOM     30  N   UNL     1      -6.264   9.201  23.703  0.00  0.00    -0.308 N 
ATOM     31  H   UNL     1      -6.829   9.655  24.406  0.00  0.00    +0.149 HD
ATOM     32  C   UNL     1      -6.696   9.230  22.440  0.00  0.00    +0.210 C 
ATOM     33  C   UNL     1      -5.826   8.505  21.396  0.00  0.00    +0.109 C 
ATOM     34  O   UNL     1      -7.736   9.797  22.102  0.00  0.00    -0.276 OA
ENDBRANCH  29  30
BRANCH  26  35
ATOM     35  C   UNL     1      -3.704   8.231  27.595  0.00  0.00    +0.414 C 
ATOM     36  O   UNL     1      -3.459   9.352  28.041  0.00  0.00    -0.240 OA
ATOM     37  O   UNL     1      -4.435   7.474  28.235  0.00  0.00    -0.240 OA
ENDBRANCH  26  35
BRANCH  26  38
ATOM     38  O   UNL     1      -1.803   7.175  26.471  0.00  0.00    -0.343 OA
ATOM     39  C   UNL     1      -1.758   5.738  26.281  0.00  0.00    +0.198 C 
ENDBRANCH  26  38
BRANCH  28  40
ATOM     40  O   UNL     1      -6.077   6.390  24.330  0.00  0.00    -0.390 OA
ATOM     41  H   UNL     1      -5.960   5.528  24.736  0.00  0.00    +0.210 HD
ENDBRANCH  28  40
ENDBRANCH  23  24
BRANCH  23  42
ATOM     42  O   UNL     1      -3.178  10.400  22.805  0.00  0.00    -0.387 OA
ATOM     43  H   UNL     1      -2.411  10.944  22.610  0.00  0.00    +0.210 HD
ENDBRANCH  23  42
ENDBRANCH   1  23
TORSDOF 15
