REMARK VINA RESULT:    -5.081      3.001      9.060
REMARK INTER + INTRA:         -11.380
REMARK INTER:                  -8.086
REMARK INTRA:                  -3.294
REMARK UNBOUND:                -1.695
REMARK  Name = lig_assembled_12.pdb
REMARK  19 active torsions:
REMARK  status: ('A' for Active; 'I' for Inactive)
REMARK    1  A    between atoms: _2  and  _9
REMARK    2  A    between atoms: _4  and  _21
REMARK    3  A    between atoms: _6  and  _7
REMARK    4  A    between atoms: _6  and  _21
REMARK    5  A    between atoms: _9  and  _16
REMARK    6  A    between atoms: _10  and  _11
REMARK    7  A    between atoms: _10  and  _16
REMARK    8  A    between atoms: _17  and  _37
REMARK    9  A    between atoms: _19  and  _25
REMARK   10  A    between atoms: _20  and  _24
REMARK   11  A    between atoms: _24  and  _25
REMARK   12  A    between atoms: _27  and  _28
REMARK   13  A    between atoms: _29  and  _30
REMARK   14  A    between atoms: _31  and  _33
REMARK   15  A    between atoms: _33  and  _34
REMARK   16  A    between atoms: _33  and  _35
REMARK   17  A    between atoms: _35  and  _36
REMARK   18  A    between atoms: _35  and  _37
REMARK   19  A    between atoms: _38  and  _40
REMARK                            x       y       z     vdW  Elec       q    Type
REMARK                         _______ _______ _______ _____ _____    ______ ____
ROOT
ATOM      1  C   UNL     1      -2.988  11.550  26.166  0.00  0.00    +0.163 C 
ENDROOT
BRANCH   1   2
ATOM      2  O   UNL     1      -1.990  12.239  25.395  0.00  0.00    -0.388 OA
ATOM      3  H   UNL     1      -1.527  12.866  25.957  0.00  0.00    +0.210 HD
ENDBRANCH   1   2
BRANCH   1   4
ATOM      4  C   UNL     1      -3.982  10.818  25.249  0.00  0.00    +0.175 C 
BRANCH   4   5
ATOM      5  C   UNL     1      -5.078  11.755  24.720  0.00  0.00    +0.176 C 
ATOM      6  O   UNL     1      -4.474  12.634  23.731  0.00  0.00    -0.332 OA
ATOM      7  C   UNL     1      -5.399  13.534  23.035  0.00  0.00    +0.277 C 
ATOM      8  C   UNL     1      -6.209  14.372  24.055  0.00  0.00    +0.110 C 
ATOM      9  C   UNL     1      -6.843  13.483  25.145  0.00  0.00    +0.143 C 
ATOM     10  C   UNL     1      -5.794  12.585  25.801  0.00  0.00    +0.133 C 
BRANCH  10  11
ATOM     11  N   UNL     1      -6.425  11.682  26.776  0.00  0.00    -0.308 N 
ATOM     12  H   UNL     1      -7.031  10.955  26.423  0.00  0.00    +0.149 HD
ATOM     13  C   UNL     1      -6.250  11.761  28.098  0.00  0.00    +0.210 C 
ATOM     14  C   UNL     1      -5.342  12.896  28.607  0.00  0.00    +0.109 C 
ATOM     15  O   UNL     1      -6.780  10.981  28.891  0.00  0.00    -0.276 OA
ENDBRANCH  10  11
BRANCH   7  16
ATOM     16  C   UNL     1      -6.367  12.737  22.137  0.00  0.00    +0.414 C 
ATOM     17  O   UNL     1      -7.557  13.047  22.079  0.00  0.00    -0.240 OA
ATOM     18  O   UNL     1      -5.960  11.784  21.472  0.00  0.00    -0.240 OA
ENDBRANCH   7  16
BRANCH   9  19
ATOM     19  O   UNL     1      -7.450  14.305  26.143  0.00  0.00    -0.390 OA
ATOM     20  H   UNL     1      -7.634  15.172  25.776  0.00  0.00    +0.210 HD
ENDBRANCH   9  19
BRANCH   7  21
ATOM     21  O   UNL     1      -4.613  14.442  22.220  0.00  0.00    -0.343 OA
ATOM     22  C   UNL     1      -5.066  15.819  22.226  0.00  0.00    +0.198 C 
ENDBRANCH   7  21
ENDBRANCH   4   5
BRANCH   4  23
ATOM     23  O   UNL     1      -4.576   9.705  25.948  0.00  0.00    -0.387 OA
ATOM     24  H   UNL     1      -5.109   9.191  25.338  0.00  0.00    +0.210 HD
ENDBRANCH   4  23
ENDBRANCH   1   4
BRANCH   1  25
ATOM     25  C   UNL     1      -2.323  10.546  27.102  0.00  0.00    +0.141 C 
BRANCH  25  28
ATOM     26  C   UNL     1      -3.431   9.705  29.144  0.00  0.00    +0.401 C 
ATOM     27  O   UNL     1      -3.679   8.595  28.666  0.00  0.00    -0.226 OA
ATOM     28  N   UNL     1      -2.807  10.679  28.481  0.00  0.00    -0.279 N 
ATOM     29  H   UNL     1      -2.658  11.559  28.955  0.00  0.00    +0.152 HD
BRANCH  26  30
ATOM     30  O   UNL     1      -3.834   9.988  30.486  0.00  0.00    -0.444 OA
BRANCH  30  31
ATOM     31  C   UNL     1      -2.689  10.358  31.260  0.00  0.00    +0.292 C 
BRANCH  31  33
ATOM     32  N   UNL     1      -1.826  12.408  32.357  0.00  0.00    -0.131 NA
ATOM     33  C   UNL     1      -2.886  11.687  31.868  0.00  0.00    +0.120 A 
ATOM     34  C   UNL     1      -4.043  12.407  32.055  0.00  0.00    +0.139 A 
ATOM     35  N   UNL     1      -3.628  13.541  32.688  0.00  0.00    -0.226 N 
ATOM     36  N   UNL     1      -2.291  13.549  32.848  0.00  0.00    -0.063 NA
BRANCH  35  37
ATOM     37  C   UNL     1      -4.422  14.676  33.125  0.00  0.00    +0.305 C 
BRANCH  37  38
ATOM     38  O   UNL     1      -5.042  15.278  31.992  0.00  0.00    -0.353 OA
BRANCH  38  39
ATOM     39  C   UNL     1      -4.216  16.278  31.409  0.00  0.00    +0.197 C 
BRANCH  39  40
ATOM     40  C   UNL     1      -5.014  16.948  30.324  0.00  0.00    -0.022 A 
ATOM     41  C   UNL     1      -4.837  18.310  30.046  0.00  0.00    +0.006 A 
ATOM     42  C   UNL     1      -5.605  18.940  29.066  0.00  0.00    +0.000 A 
ATOM     43  C   UNL     1      -6.564  18.217  28.360  0.00  0.00    +0.000 A 
ATOM     44  C   UNL     1      -6.759  16.864  28.634  0.00  0.00    +0.000 A 
ATOM     45  C   UNL     1      -5.990  16.233  29.614  0.00  0.00    +0.006 A 
ENDBRANCH  39  40
ENDBRANCH  38  39
ENDBRANCH  37  38
ENDBRANCH  35  37
ENDBRANCH  31  33
ENDBRANCH  30  31
ENDBRANCH  26  30
ENDBRANCH  25  28
ENDBRANCH   1  25
TORSDOF 17
