REMARK VINA RESULT:    -4.750      6.352     12.014
REMARK INTER + INTRA:         -11.314
REMARK INTER:                  -9.405
REMARK INTRA:                  -1.908
REMARK UNBOUND:                -3.093
REMARK  Name = lig_assembled_80.pdb
REMARK  16 active torsions:
REMARK  status: ('A' for Active; 'I' for Inactive)
REMARK    1  A    between atoms: _2  and  _10
REMARK    2  A    between atoms: _5  and  _24
REMARK    3  A    between atoms: _7  and  _8
REMARK    4  A    between atoms: _7  and  _24
REMARK    5  A    between atoms: _20  and  _40
REMARK    6  A    between atoms: _22  and  _28
REMARK    7  A    between atoms: _23  and  _27
REMARK    8  A    between atoms: _27  and  _28
REMARK    9  A    between atoms: _30  and  _31
REMARK   10  A    between atoms: _32  and  _33
REMARK   11  A    between atoms: _34  and  _36
REMARK   12  A    between atoms: _36  and  _37
REMARK   13  A    between atoms: _36  and  _38
REMARK   14  A    between atoms: _38  and  _39
REMARK   15  A    between atoms: _38  and  _40
REMARK   16  A    between atoms: _41  and  _43
REMARK                            x       y       z     vdW  Elec       q    Type
REMARK                         _______ _______ _______ _____ _____    ______ ____
ROOT
ATOM      1  C   UNL     1      -6.287  11.094  20.063  0.00  0.00    +0.141 C 
ENDROOT
BRANCH   1   4
ATOM      2  C   UNL     1      -5.210  11.551  17.887  0.00  0.00    +0.401 C 
ATOM      3  O   UNL     1      -6.201  12.105  17.406  0.00  0.00    -0.226 OA
ATOM      4  N   UNL     1      -5.164  11.043  19.119  0.00  0.00    -0.279 N 
ATOM      5  H   UNL     1      -4.308  10.598  19.420  0.00  0.00    +0.152 HD
BRANCH   2   6
ATOM      6  O   UNL     1      -4.028  11.429  17.091  0.00  0.00    -0.444 OA
BRANCH   6   7
ATOM      7  C   UNL     1      -4.314  10.649  15.927  0.00  0.00    +0.292 C 
BRANCH   7   9
ATOM      8  N   UNL     1      -5.155  11.628  13.828  0.00  0.00    -0.131 NA
ATOM      9  C   UNL     1      -4.120  11.456  14.705  0.00  0.00    +0.120 A 
ATOM     10  C   UNL     1      -3.010  12.130  14.245  0.00  0.00    +0.138 A 
ATOM     11  N   UNL     1      -3.419  12.648  13.045  0.00  0.00    -0.239 N 
ATOM     12  N   UNL     1      -4.723  12.372  12.819  0.00  0.00    -0.065 NA
BRANCH  11  13
ATOM     13  C   UNL     1      -2.721  13.556  12.128  0.00  0.00    +0.195 C 
ATOM     14  C   UNL     1      -2.155  14.716  12.936  0.00  0.00    +0.041 C 
ATOM     15  C   UNL     1      -1.677  15.830  12.028  0.00  0.00    +0.039 C 
ATOM     16  C   UNL     1      -0.278  15.551  11.575  0.00  0.00    -0.026 A 
ATOM     17  C   UNL     1       0.048  14.458  10.771  0.00  0.00    +0.037 A 
ATOM     18  C   UNL     1       1.361  14.331  10.286  0.00  0.00    +0.023 A 
ATOM     19  C   UNL     1       2.366  15.209  10.689  0.00  0.00    +0.002 A 
ATOM     20  C   UNL     1       2.059  16.253  11.548  0.00  0.00    +0.000 A 
ATOM     21  N   UNL     1      -0.809  13.391  10.451  0.00  0.00    -0.284 N 
ATOM     22  H   UNL     1      -0.407  12.696   9.829  0.00  0.00    +0.155 HD
ATOM     23  C   UNL     1       0.743  16.439  11.967  0.00  0.00    +0.005 A 
ATOM     24  C   UNL     1      -1.780  12.793  11.202  0.00  0.00    +0.242 C 
ATOM     25  O   UNL     1      -1.920  11.582  10.993  0.00  0.00    -0.273 OA
ENDBRANCH  11  13
ENDBRANCH   7   9
ENDBRANCH   6   7
ENDBRANCH   2   6
ENDBRANCH   1   4
BRANCH   1  26
ATOM     26  C   UNL     1      -6.102  10.118  21.220  0.00  0.00    +0.163 C 
BRANCH  26  27
ATOM     27  O   UNL     1      -4.819   9.479  21.124  0.00  0.00    -0.388 OA
ATOM     28  H   UNL     1      -4.126  10.143  21.159  0.00  0.00    +0.210 HD
ENDBRANCH  26  27
BRANCH  26  29
ATOM     29  C   UNL     1      -6.242  10.871  22.555  0.00  0.00    +0.175 C 
BRANCH  29  30
ATOM     30  C   UNL     1      -5.057  10.607  23.495  0.00  0.00    +0.176 C 
ATOM     31  O   UNL     1      -5.589  10.340  24.821  0.00  0.00    -0.332 OA
ATOM     32  C   UNL     1      -4.601   9.960  25.836  0.00  0.00    +0.277 C 
ATOM     33  C   UNL     1      -3.481  11.024  25.926  0.00  0.00    +0.110 C 
ATOM     34  C   UNL     1      -2.905  11.364  24.535  0.00  0.00    +0.143 C 
ATOM     35  C   UNL     1      -4.019  11.743  23.558  0.00  0.00    +0.133 C 
BRANCH  35  36
ATOM     36  N   UNL     1      -3.468  11.980  22.214  0.00  0.00    -0.308 N 
ATOM     37  H   UNL     1      -3.049  11.197  21.732  0.00  0.00    +0.149 HD
ATOM     38  C   UNL     1      -3.484  13.161  21.591  0.00  0.00    +0.210 C 
ATOM     39  C   UNL     1      -4.106  14.339  22.364  0.00  0.00    +0.109 C 
ATOM     40  O   UNL     1      -3.028  13.327  20.460  0.00  0.00    -0.276 OA
ENDBRANCH  35  36
BRANCH  32  41
ATOM     41  C   UNL     1      -3.982   8.585  25.508  0.00  0.00    +0.414 C 
ATOM     42  O   UNL     1      -4.643   7.732  24.918  0.00  0.00    -0.240 OA
ATOM     43  O   UNL     1      -2.822   8.330  25.833  0.00  0.00    -0.240 OA
ENDBRANCH  32  41
BRANCH  34  44
ATOM     44  O   UNL     1      -1.987  12.452  24.646  0.00  0.00    -0.390 OA
ATOM     45  H   UNL     1      -2.390  13.161  25.152  0.00  0.00    +0.210 HD
ENDBRANCH  34  44
BRANCH  32  46
ATOM     46  O   UNL     1      -5.277   9.898  27.119  0.00  0.00    -0.343 OA
ATOM     47  C   UNL     1      -6.724   9.856  27.047  0.00  0.00    +0.198 C 
ENDBRANCH  32  46
ENDBRANCH  29  30
BRANCH  29  48
ATOM     48  O   UNL     1      -7.479  10.509  23.201  0.00  0.00    -0.387 OA
ATOM     49  H   UNL     1      -8.123  10.249  22.538  0.00  0.00    +0.210 HD
ENDBRANCH  29  48
ENDBRANCH  26  29
ENDBRANCH   1  26
TORSDOF 14
