REMARK VINA RESULT:    -4.280      4.769      9.131
REMARK INTER + INTRA:         -10.506
REMARK INTER:                  -7.595
REMARK INTRA:                  -2.911
REMARK UNBOUND:                -2.848
REMARK  Name = lig_assembled_63.pdb
REMARK  17 active torsions:
REMARK  status: ('A' for Active; 'I' for Inactive)
REMARK    1  A    between atoms: _2  and  _11
REMARK    2  A    between atoms: _6  and  _20
REMARK    3  A    between atoms: _7  and  _15
REMARK    4  A    between atoms: _8  and  _9
REMARK    5  A    between atoms: _8  and  _20
REMARK    6  A    between atoms: _16  and  _36
REMARK    7  A    between atoms: _18  and  _24
REMARK    8  A    between atoms: _19  and  _23
REMARK    9  A    between atoms: _23  and  _24
REMARK   10  A    between atoms: _26  and  _27
REMARK   11  A    between atoms: _28  and  _29
REMARK   12  A    between atoms: _30  and  _32
REMARK   13  A    between atoms: _32  and  _33
REMARK   14  A    between atoms: _32  and  _34
REMARK   15  A    between atoms: _34  and  _35
REMARK   16  A    between atoms: _34  and  _36
REMARK   17  A    between atoms: _37  and  _39
REMARK                            x       y       z     vdW  Elec       q    Type
REMARK                         _______ _______ _______ _____ _____    ______ ____
ROOT
ATOM      1  C   UNL     1      -5.257   7.438  24.063  0.00  0.00    +0.163 C 
ENDROOT
BRANCH   1   2
ATOM      2  O   UNL     1      -4.055   6.950  24.680  0.00  0.00    -0.388 OA
ATOM      3  H   UNL     1      -4.093   7.110  25.627  0.00  0.00    +0.210 HD
ENDBRANCH   1   2
BRANCH   1   4
ATOM      4  C   UNL     1      -5.678   6.506  22.931  0.00  0.00    +0.141 C 
BRANCH   4   7
ATOM      5  C   UNL     1      -6.342   7.059  20.616  0.00  0.00    +0.401 C 
ATOM      6  O   UNL     1      -5.477   6.349  20.098  0.00  0.00    -0.226 OA
ATOM      7  N   UNL     1      -6.504   7.196  21.932  0.00  0.00    -0.279 N 
ATOM      8  H   UNL     1      -7.236   7.810  22.261  0.00  0.00    +0.152 HD
BRANCH   5   9
ATOM      9  O   UNL     1      -7.234   7.792  19.773  0.00  0.00    -0.444 OA
BRANCH   9  10
ATOM     10  C   UNL     1      -7.627   9.000  20.429  0.00  0.00    +0.292 C 
BRANCH  10  12
ATOM     11  N   UNL     1      -7.642  11.427  19.964  0.00  0.00    -0.131 NA
ATOM     12  C   UNL     1      -7.208  10.174  19.641  0.00  0.00    +0.121 A 
ATOM     13  C   UNL     1      -6.399  10.254  18.532  0.00  0.00    +0.145 A 
ATOM     14  N   UNL     1      -6.399  11.591  18.186  0.00  0.00    -0.200 N 
ATOM     15  N   UNL     1      -7.140  12.280  19.081  0.00  0.00    -0.059 NA
BRANCH  14  16
ATOM     16  C   UNL     1      -5.779  12.169  17.039  0.00  0.00    +0.173 A 
ATOM     17  C   UNL     1      -6.473  12.398  15.848  0.00  0.00    +0.096 A 
ATOM     18  C   UNL     1      -5.740  12.882  14.751  0.00  0.00    +0.024 A 
ATOM     19  C   UNL     1      -4.378  13.144  14.868  0.00  0.00    +0.021 A 
ATOM     20  C   UNL     1      -3.780  12.926  16.093  0.00  0.00    +0.113 A 
ATOM     21  N   UNL     1      -4.442  12.447  17.168  0.00  0.00    -0.235 NA
BRANCH  17  22
ATOM     22  C   UNL     1      -7.878  12.200  15.652  0.00  0.00    +0.103 C 
ATOM     23  N   UNL     1      -8.992  11.954  15.436  0.00  0.00    -0.191 NA
ENDBRANCH  17  22
ENDBRANCH  14  16
ENDBRANCH  10  12
ENDBRANCH   9  10
ENDBRANCH   5   9
ENDBRANCH   4   7
ENDBRANCH   1   4
BRANCH   1  24
ATOM     24  C   UNL     1      -5.053   8.859  23.510  0.00  0.00    +0.175 C 
BRANCH  24  25
ATOM     25  C   UNL     1      -3.959   9.623  24.269  0.00  0.00    +0.176 C 
ATOM     26  O   UNL     1      -4.302   9.610  25.682  0.00  0.00    -0.332 OA
ATOM     27  C   UNL     1      -3.309  10.206  26.581  0.00  0.00    +0.277 C 
ATOM     28  C   UNL     1      -2.977  11.651  26.137  0.00  0.00    +0.110 C 
ATOM     29  C   UNL     1      -2.636  11.721  24.634  0.00  0.00    +0.143 C 
ATOM     30  C   UNL     1      -3.733  11.070  23.792  0.00  0.00    +0.133 C 
BRANCH  30  31
ATOM     31  N   UNL     1      -3.357  11.065  22.369  0.00  0.00    -0.308 N 
ATOM     32  H   UNL     1      -2.590  10.472  22.086  0.00  0.00    +0.149 HD
ATOM     33  C   UNL     1      -3.963  11.794  21.428  0.00  0.00    +0.210 C 
ATOM     34  C   UNL     1      -5.111  12.707  21.896  0.00  0.00    +0.109 C 
ATOM     35  O   UNL     1      -3.636  11.758  20.241  0.00  0.00    -0.276 OA
ENDBRANCH  30  31
BRANCH  27  36
ATOM     36  C   UNL     1      -2.017   9.363  26.605  0.00  0.00    +0.414 C 
ATOM     37  O   UNL     1      -0.929   9.903  26.802  0.00  0.00    -0.240 OA
ATOM     38  O   UNL     1      -2.063   8.145  26.428  0.00  0.00    -0.240 OA
ENDBRANCH  27  36
BRANCH  27  39
ATOM     39  O   UNL     1      -3.884  10.257  27.913  0.00  0.00    -0.343 OA
ATOM     40  C   UNL     1      -3.882  11.569  28.530  0.00  0.00    +0.198 C 
ENDBRANCH  27  39
BRANCH  29  41
ATOM     41  O   UNL     1      -2.485  13.085  24.237  0.00  0.00    -0.390 OA
ATOM     42  H   UNL     1      -2.080  13.583  24.950  0.00  0.00    +0.210 HD
ENDBRANCH  29  41
ENDBRANCH  24  25
BRANCH  24  43
ATOM     43  O   UNL     1      -6.294   9.593  23.555  0.00  0.00    -0.387 OA
ATOM     44  H   UNL     1      -6.973   9.103  23.085  0.00  0.00    +0.210 HD
ENDBRANCH  24  43
ENDBRANCH   1  24
TORSDOF 15
