REMARK VINA RESULT:    -4.816      4.439      7.673
REMARK INTER + INTRA:         -10.843
REMARK INTER:                  -8.617
REMARK INTRA:                  -2.226
REMARK UNBOUND:                -2.508
REMARK  Name = lig_assembled_48.pdb
REMARK  16 active torsions:
REMARK  status: ('A' for Active; 'I' for Inactive)
REMARK    1  A    between atoms: _2  and  _9
REMARK    2  A    between atoms: _4  and  _18
REMARK    3  A    between atoms: _6  and  _7
REMARK    4  A    between atoms: _6  and  _18
REMARK    5  A    between atoms: _14  and  _34
REMARK    6  A    between atoms: _16  and  _22
REMARK    7  A    between atoms: _17  and  _21
REMARK    8  A    between atoms: _21  and  _22
REMARK    9  A    between atoms: _24  and  _25
REMARK   10  A    between atoms: _26  and  _27
REMARK   11  A    between atoms: _28  and  _30
REMARK   12  A    between atoms: _30  and  _31
REMARK   13  A    between atoms: _30  and  _32
REMARK   14  A    between atoms: _32  and  _33
REMARK   15  A    between atoms: _32  and  _34
REMARK   16  A    between atoms: _35  and  _37
REMARK                            x       y       z     vdW  Elec       q    Type
REMARK                         _______ _______ _______ _____ _____    ______ ____
ROOT
ATOM      1  C   UNL     1      -2.967  11.590  24.310  0.00  0.00    +0.163 C 
ENDROOT
BRANCH   1   2
ATOM      2  O   UNL     1      -2.040  11.911  25.360  0.00  0.00    -0.388 OA
ATOM      3  H   UNL     1      -1.191  12.145  24.977  0.00  0.00    +0.210 HD
ENDBRANCH   1   2
BRANCH   1   4
ATOM      4  C   UNL     1      -3.233  12.824  23.453  0.00  0.00    +0.141 C 
BRANCH   4   7
ATOM      5  C   UNL     1      -4.185  12.386  21.215  0.00  0.00    +0.401 C 
ATOM      6  O   UNL     1      -5.356  12.480  21.592  0.00  0.00    -0.226 OA
ATOM      7  N   UNL     1      -3.130  12.526  22.019  0.00  0.00    -0.279 N 
ATOM      8  H   UNL     1      -2.208  12.422  21.619  0.00  0.00    +0.152 HD
BRANCH   5   9
ATOM      9  O   UNL     1      -3.918  12.107  19.839  0.00  0.00    -0.444 OA
BRANCH   9  10
ATOM     10  C   UNL     1      -5.108  11.622  19.210  0.00  0.00    +0.292 C 
BRANCH  10  12
ATOM     11  N   UNL     1      -4.937   9.171  18.945  0.00  0.00    -0.131 NA
ATOM     12  C   UNL     1      -4.805  10.422  18.410  0.00  0.00    +0.120 A 
ATOM     13  C   UNL     1      -4.397  10.310  17.099  0.00  0.00    +0.137 A 
ATOM     14  N   UNL     1      -4.391   8.967  16.864  0.00  0.00    -0.248 N 
ATOM     15  N   UNL     1      -4.644   8.287  18.003  0.00  0.00    -0.065 NA
BRANCH  14  16
ATOM     16  C   UNL     1      -4.217   8.218  15.625  0.00  0.00    +0.109 C 
ATOM     17  C   UNL     1      -3.225   8.929  14.683  0.00  0.00    +0.027 C 
ATOM     18  C   UNL     1      -1.791   8.815  15.194  0.00  0.00    +0.002 C 
ATOM     19  C   UNL     1      -1.370   7.355  15.309  0.00  0.00    +0.000 C 
ATOM     20  C   UNL     1      -2.333   6.534  16.162  0.00  0.00    +0.002 C 
ATOM     21  C   UNL     1      -3.805   6.742  15.785  0.00  0.00    +0.027 C 
ENDBRANCH  14  16
ENDBRANCH  10  12
ENDBRANCH   9  10
ENDBRANCH   5   9
ENDBRANCH   4   7
ENDBRANCH   1   4
BRANCH   1  22
ATOM     22  C   UNL     1      -4.295  11.071  24.889  0.00  0.00    +0.175 C 
BRANCH  22  23
ATOM     23  C   UNL     1      -4.074  10.048  26.013  0.00  0.00    +0.176 C 
ATOM     24  O   UNL     1      -3.092   9.080  25.551  0.00  0.00    -0.332 OA
ATOM     25  C   UNL     1      -2.675   8.080  26.538  0.00  0.00    +0.277 C 
ATOM     26  C   UNL     1      -3.907   7.341  27.114  0.00  0.00    +0.110 C 
ATOM     27  C   UNL     1      -4.993   8.329  27.590  0.00  0.00    +0.143 C 
ATOM     28  C   UNL     1      -5.349   9.326  26.486  0.00  0.00    +0.133 C 
BRANCH  28  29
ATOM     29  N   UNL     1      -6.320  10.315  26.979  0.00  0.00    -0.308 N 
ATOM     30  H   UNL     1      -6.011  10.967  27.687  0.00  0.00    +0.149 HD
ATOM     31  C   UNL     1      -7.583  10.408  26.553  0.00  0.00    +0.210 C 
ATOM     32  C   UNL     1      -8.030   9.383  25.494  0.00  0.00    +0.109 C 
ATOM     33  O   UNL     1      -8.370  11.257  26.974  0.00  0.00    -0.276 OA
ENDBRANCH  28  29
BRANCH  25  34
ATOM     34  C   UNL     1      -1.886   8.742  27.687  0.00  0.00    +0.414 C 
ATOM     35  O   UNL     1      -2.034   8.352  28.845  0.00  0.00    -0.240 OA
ATOM     36  O   UNL     1      -1.104   9.665  27.457  0.00  0.00    -0.240 OA
ENDBRANCH  25  34
BRANCH  27  37
ATOM     37  O   UNL     1      -6.166   7.609  27.971  0.00  0.00    -0.390 OA
ATOM     38  H   UNL     1      -6.877   8.228  28.154  0.00  0.00    +0.210 HD
ENDBRANCH  27  37
BRANCH  25  39
ATOM     39  O   UNL     1      -1.833   7.109  25.865  0.00  0.00    -0.343 OA
ATOM     40  C   UNL     1      -1.904   5.762  26.398  0.00  0.00    +0.198 C 
ENDBRANCH  25  39
ENDBRANCH  22  23
BRANCH  22  41
ATOM     41  O   UNL     1      -5.100  10.492  23.842  0.00  0.00    -0.387 OA
ATOM     42  H   UNL     1      -4.791  10.807  22.989  0.00  0.00    +0.210 HD
ENDBRANCH  22  41
ENDBRANCH   1  22
TORSDOF 14
