REMARK VINA RESULT:    -5.031      1.561      3.315
REMARK INTER + INTRA:         -12.143
REMARK INTER:                  -8.828
REMARK INTRA:                  -3.316
REMARK UNBOUND:                -2.554
REMARK  Name = lig_assembled_9.pdb
REMARK  20 active torsions:
REMARK  status: ('A' for Active; 'I' for Inactive)
REMARK    1  A    between atoms: _2  and  _9
REMARK    2  A    between atoms: _4  and  _23
REMARK    3  A    between atoms: _6  and  _7
REMARK    4  A    between atoms: _6  and  _23
REMARK    5  A    between atoms: _11  and  _12
REMARK    6  A    between atoms: _12  and  _17
REMARK    7  A    between atoms: _13  and  _14
REMARK    8  A    between atoms: _13  and  _17
REMARK    9  A    between atoms: _19  and  _39
REMARK   10  A    between atoms: _21  and  _27
REMARK   11  A    between atoms: _22  and  _26
REMARK   12  A    between atoms: _26  and  _27
REMARK   13  A    between atoms: _29  and  _30
REMARK   14  A    between atoms: _31  and  _32
REMARK   15  A    between atoms: _33  and  _35
REMARK   16  A    between atoms: _35  and  _36
REMARK   17  A    between atoms: _35  and  _37
REMARK   18  A    between atoms: _37  and  _38
REMARK   19  A    between atoms: _37  and  _39
REMARK   20  A    between atoms: _40  and  _42
REMARK                            x       y       z     vdW  Elec       q    Type
REMARK                         _______ _______ _______ _____ _____    ______ ____
ROOT
ATOM      1  C   UNL     1      -5.145   8.117  22.553  0.00  0.00    +0.163 C 
ENDROOT
BRANCH   1   2
ATOM      2  O   UNL     1      -5.073   8.287  21.128  0.00  0.00    -0.388 OA
ATOM      3  H   UNL     1      -5.787   7.799  20.710  0.00  0.00    +0.210 HD
ENDBRANCH   1   2
BRANCH   1   4
ATOM      4  C   UNL     1      -6.059   9.179  23.187  0.00  0.00    +0.175 C 
BRANCH   4   5
ATOM      5  C   UNL     1      -5.273  10.410  23.662  0.00  0.00    +0.176 C 
ATOM      6  O   UNL     1      -4.863  11.159  22.485  0.00  0.00    -0.332 OA
ATOM      7  C   UNL     1      -4.186  12.432  22.748  0.00  0.00    +0.277 C 
ATOM      8  C   UNL     1      -2.969  12.215  23.681  0.00  0.00    +0.110 C 
ATOM      9  C   UNL     1      -3.349  11.396  24.932  0.00  0.00    +0.143 C 
ATOM     10  C   UNL     1      -4.050  10.093  24.542  0.00  0.00    +0.133 C 
BRANCH  10  11
ATOM     11  N   UNL     1      -4.485   9.363  25.743  0.00  0.00    -0.308 N 
ATOM     12  H   UNL     1      -4.231   8.388  25.820  0.00  0.00    +0.149 HD
ATOM     13  C   UNL     1      -5.192   9.904  26.738  0.00  0.00    +0.210 C 
ATOM     14  C   UNL     1      -5.585  11.385  26.579  0.00  0.00    +0.109 C 
ATOM     15  O   UNL     1      -5.530   9.272  27.740  0.00  0.00    -0.276 OA
ENDBRANCH  10  11
BRANCH   7  16
ATOM     16  C   UNL     1      -5.155  13.444  23.392  0.00  0.00    +0.414 C 
ATOM     17  O   UNL     1      -4.834  14.046  24.416  0.00  0.00    -0.240 OA
ATOM     18  O   UNL     1      -6.259  13.660  22.889  0.00  0.00    -0.240 OA
ENDBRANCH   7  16
BRANCH   7  19
ATOM     19  O   UNL     1      -3.704  12.955  21.483  0.00  0.00    -0.343 OA
ATOM     20  C   UNL     1      -4.109  12.198  20.314  0.00  0.00    +0.198 C 
ENDBRANCH   7  19
BRANCH   9  21
ATOM     21  O   UNL     1      -2.174  11.091  25.684  0.00  0.00    -0.390 OA
ATOM     22  H   UNL     1      -2.197  10.170  25.955  0.00  0.00    +0.210 HD
ENDBRANCH   9  21
ENDBRANCH   4   5
BRANCH   4  23
ATOM     23  O   UNL     1      -6.796   8.607  24.286  0.00  0.00    -0.387 OA
ATOM     24  H   UNL     1      -7.712   8.478  24.026  0.00  0.00    +0.210 HD
ENDBRANCH   4  23
ENDBRANCH   1   4
BRANCH   1  25
ATOM     25  C   UNL     1      -5.672   6.725  22.886  0.00  0.00    +0.141 C 
BRANCH  25  28
ATOM     26  C   UNL     1      -4.919   5.911  25.094  0.00  0.00    +0.401 C 
ATOM     27  O   UNL     1      -5.840   6.449  25.712  0.00  0.00    -0.226 OA
ATOM     28  N   UNL     1      -4.759   5.992  23.773  0.00  0.00    -0.279 N 
ATOM     29  H   UNL     1      -3.966   5.524  23.358  0.00  0.00    +0.152 HD
BRANCH  26  30
ATOM     30  O   UNL     1      -3.948   5.150  25.818  0.00  0.00    -0.444 OA
BRANCH  30  31
ATOM     31  C   UNL     1      -2.668   5.777  25.704  0.00  0.00    +0.292 C 
BRANCH  31  33
ATOM     32  N   UNL     1      -1.881   7.987  26.495  0.00  0.00    -0.131 NA
ATOM     33  C   UNL     1      -2.505   6.802  26.753  0.00  0.00    +0.121 A 
ATOM     34  C   UNL     1      -2.914   6.785  28.066  0.00  0.00    +0.143 A 
ATOM     35  N   UNL     1      -2.547   8.014  28.567  0.00  0.00    -0.220 N 
ATOM     36  N   UNL     1      -1.902   8.714  27.604  0.00  0.00    -0.060 NA
BRANCH  35  37
ATOM     37  C   UNL     1      -2.790   8.554  29.856  0.00  0.00    +0.068 A 
ATOM     38  C   UNL     1      -2.767   9.940  30.064  0.00  0.00    +0.042 A 
ATOM     39  C   UNL     1      -2.976  10.468  31.347  0.00  0.00    +0.061 A 
ATOM     40  C   UNL     1      -3.215   9.603  32.421  0.00  0.00    +0.015 A 
ATOM     41  C   UNL     1      -3.252   8.223  32.215  0.00  0.00    +0.003 A 
ATOM     42  C   UNL     1      -3.042   7.697  30.939  0.00  0.00    +0.028 A 
BRANCH  39  43
ATOM     43  C   UNL     1      -3.019  11.932  31.598  0.00  0.00    +0.339 C 
ATOM     44  O   UNL     1      -3.821  12.687  31.072  0.00  0.00    -0.245 OA
BRANCH  43  45
ATOM     45  O   UNL     1      -1.986  12.290  32.400  0.00  0.00    -0.461 OA
BRANCH  45  46
ATOM     46  C   UNL     1      -1.805  13.700  32.584  0.00  0.00    +0.229 C 
ATOM     47  C   UNL     1      -2.180  14.038  34.015  0.00  0.00    +0.048 C 
ENDBRANCH  45  46
ENDBRANCH  43  45
ENDBRANCH  39  43
ENDBRANCH  35  37
ENDBRANCH  31  33
ENDBRANCH  30  31
ENDBRANCH  26  30
ENDBRANCH  25  28
ENDBRANCH   1  25
TORSDOF 17
