REMARK VINA RESULT:    -4.759      3.228      7.188
REMARK INTER + INTRA:         -12.678
REMARK INTER:                  -9.080
REMARK INTRA:                  -3.598
REMARK UNBOUND:                -3.885
REMARK  Name = lig_assembled_79.pdb
REMARK  20 active torsions:
REMARK  status: ('A' for Active; 'I' for Inactive)
REMARK    1  A    between atoms: _2  and  _10
REMARK    2  A    between atoms: _5  and  _26
REMARK    3  A    between atoms: _7  and  _8
REMARK    4  A    between atoms: _7  and  _26
REMARK    5  A    between atoms: _10  and  _11
REMARK    6  A    between atoms: _10  and  _12
REMARK    7  A    between atoms: _10  and  _13
REMARK    8  A    between atoms: _13  and  _14
REMARK    9  A    between atoms: _22  and  _42
REMARK   10  A    between atoms: _24  and  _30
REMARK   11  A    between atoms: _25  and  _29
REMARK   12  A    between atoms: _29  and  _30
REMARK   13  A    between atoms: _32  and  _33
REMARK   14  A    between atoms: _34  and  _35
REMARK   15  A    between atoms: _36  and  _38
REMARK   16  A    between atoms: _38  and  _39
REMARK   17  A    between atoms: _38  and  _40
REMARK   18  A    between atoms: _40  and  _41
REMARK   19  A    between atoms: _40  and  _42
REMARK   20  A    between atoms: _43  and  _45
REMARK                            x       y       z     vdW  Elec       q    Type
REMARK                         _______ _______ _______ _____ _____    ______ ____
ROOT
ATOM      1  C   UNL     1      -3.859  13.038  23.641  0.00  0.00    +0.401 C 
ATOM      2  O   UNL     1      -2.831  13.244  24.290  0.00  0.00    -0.226 OA
ATOM      3  N   UNL     1      -4.901  12.341  24.096  0.00  0.00    -0.279 N 
ATOM      4  H   UNL     1      -5.704  12.235  23.492  0.00  0.00    +0.152 HD
ENDROOT
BRANCH   3   5
ATOM      5  C   UNL     1      -4.947  11.720  25.425  0.00  0.00    +0.141 C 
BRANCH   5   6
ATOM      6  C   UNL     1      -4.743  10.210  25.355  0.00  0.00    +0.163 C 
BRANCH   6   7
ATOM      7  O   UNL     1      -5.230   9.707  24.100  0.00  0.00    -0.388 OA
ATOM      8  H   UNL     1      -4.632   9.968  23.396  0.00  0.00    +0.210 HD
ENDBRANCH   6   7
BRANCH   6   9
ATOM      9  C   UNL     1      -3.251   9.883  25.537  0.00  0.00    +0.175 C 
BRANCH   9  10
ATOM     10  C   UNL     1      -3.034   8.647  26.421  0.00  0.00    +0.176 C 
ATOM     11  O   UNL     1      -3.488   7.481  25.680  0.00  0.00    -0.332 OA
ATOM     12  C   UNL     1      -3.259   6.187  26.330  0.00  0.00    +0.277 C 
ATOM     13  C   UNL     1      -3.878   6.178  27.749  0.00  0.00    +0.110 C 
ATOM     14  C   UNL     1      -3.449   7.416  28.565  0.00  0.00    +0.143 C 
ATOM     15  C   UNL     1      -3.729   8.706  27.794  0.00  0.00    +0.133 C 
BRANCH  15  16
ATOM     16  N   UNL     1      -3.237   9.872  28.544  0.00  0.00    -0.308 N 
ATOM     17  H   UNL     1      -2.237   9.983  28.640  0.00  0.00    +0.149 HD
ATOM     18  C   UNL     1      -4.024  10.793  29.106  0.00  0.00    +0.210 C 
ATOM     19  C   UNL     1      -5.543  10.581  28.964  0.00  0.00    +0.109 C 
ATOM     20  O   UNL     1      -3.583  11.768  29.716  0.00  0.00    -0.276 OA
ENDBRANCH  15  16
BRANCH  12  21
ATOM     21  C   UNL     1      -1.750   5.881  26.423  0.00  0.00    +0.414 C 
ATOM     22  O   UNL     1      -1.275   5.413  27.457  0.00  0.00    -0.240 OA
ATOM     23  O   UNL     1      -1.008   6.103  25.466  0.00  0.00    -0.240 OA
ENDBRANCH  12  21
BRANCH  14  24
ATOM     24  O   UNL     1      -4.158   7.445  29.805  0.00  0.00    -0.390 OA
ATOM     25  H   UNL     1      -3.727   8.057  30.406  0.00  0.00    +0.210 HD
ENDBRANCH  14  24
BRANCH  12  26
ATOM     26  O   UNL     1      -3.917   5.165  25.538  0.00  0.00    -0.343 OA
ATOM     27  C   UNL     1      -4.860   5.663  24.556  0.00  0.00    +0.198 C 
ENDBRANCH  12  26
ENDBRANCH   9  10
BRANCH   9  28
ATOM     28  O   UNL     1      -2.558  11.019  26.092  0.00  0.00    -0.387 OA
ATOM     29  H   UNL     1      -2.087  10.751  26.884  0.00  0.00    +0.210 HD
ENDBRANCH   9  28
ENDBRANCH   6   9
ENDBRANCH   5   6
ENDBRANCH   3   5
BRANCH   1  30
ATOM     30  O   UNL     1      -3.964  13.573  22.319  0.00  0.00    -0.444 OA
BRANCH  30  31
ATOM     31  C   UNL     1      -3.256  12.731  21.405  0.00  0.00    +0.292 C 
BRANCH  31  33
ATOM     32  N   UNL     1      -3.499  10.281  21.555  0.00  0.00    -0.131 NA
ATOM     33  C   UNL     1      -4.011  11.486  21.173  0.00  0.00    +0.120 A 
ATOM     34  C   UNL     1      -5.240  11.289  20.585  0.00  0.00    +0.138 A 
ATOM     35  N   UNL     1      -5.473   9.948  20.717  0.00  0.00    -0.238 N 
ATOM     36  N   UNL     1      -4.374   9.343  21.233  0.00  0.00    -0.064 NA
BRANCH  35  37
ATOM     37  C   UNL     1      -6.594   9.098  20.220  0.00  0.00    +0.122 C 
ATOM     38  C   UNL     1      -7.870   9.584  20.948  0.00  0.00    +0.044 C 
ATOM     39  C   UNL     1      -6.173   7.652  20.551  0.00  0.00    +0.044 C 
BRANCH  37  40
ATOM     40  C   UNL     1      -6.847   9.238  18.705  0.00  0.00    +0.192 C 
ATOM     41  O   UNL     1      -8.001   9.288  18.268  0.00  0.00    -0.289 OA
BRANCH  40  42
ATOM     42  C   UNL     1      -5.740   9.295  17.707  0.00  0.00    +0.045 A 
ATOM     43  C   UNL     1      -5.118   8.122  17.294  0.00  0.00    +0.095 A 
ATOM     44  N   UNL     1      -4.126   8.414  16.408  0.00  0.00    -0.360 N 
ATOM     45  H   UNL     1      -3.517   7.738  15.968  0.00  0.00    +0.165 HD
ATOM     46  C   UNL     1      -4.063   9.769  16.206  0.00  0.00    +0.047 A 
ATOM     47  C   UNL     1      -3.187  10.495  15.386  0.00  0.00    +0.026 A 
ATOM     48  C   UNL     1      -3.314  11.883  15.350  0.00  0.00    +0.002 A 
ATOM     49  C   UNL     1      -4.287  12.519  16.105  0.00  0.00    +0.001 A 
ATOM     50  C   UNL     1      -5.153  11.776  16.917  0.00  0.00    +0.011 A 
ATOM     51  C   UNL     1      -5.060  10.362  16.992  0.00  0.00    +0.010 A 
ENDBRANCH  40  42
ENDBRANCH  37  40
ENDBRANCH  35  37
ENDBRANCH  31  33
ENDBRANCH  30  31
ENDBRANCH   1  30
TORSDOF 16
