REMARK VINA RESULT:    -5.163      3.751     11.736
REMARK INTER + INTRA:         -11.684
REMARK INTER:                  -9.028
REMARK INTRA:                  -2.655
REMARK UNBOUND:                -2.447
REMARK  Name = lig_assembled_85.pdb
REMARK  19 active torsions:
REMARK  status: ('A' for Active; 'I' for Inactive)
REMARK    1  A    between atoms: _2  and  _10
REMARK    2  A    between atoms: _3  and  _6
REMARK    3  A    between atoms: _3  and  _17
REMARK    4  A    between atoms: _5  and  _23
REMARK    5  A    between atoms: _7  and  _8
REMARK    6  A    between atoms: _7  and  _23
REMARK    7  A    between atoms: _15  and  _16
REMARK    8  A    between atoms: _19  and  _39
REMARK    9  A    between atoms: _21  and  _27
REMARK   10  A    between atoms: _22  and  _26
REMARK   11  A    between atoms: _26  and  _27
REMARK   12  A    between atoms: _29  and  _30
REMARK   13  A    between atoms: _31  and  _32
REMARK   14  A    between atoms: _33  and  _35
REMARK   15  A    between atoms: _35  and  _36
REMARK   16  A    between atoms: _35  and  _37
REMARK   17  A    between atoms: _37  and  _38
REMARK   18  A    between atoms: _37  and  _39
REMARK   19  A    between atoms: _40  and  _42
REMARK                            x       y       z     vdW  Elec       q    Type
REMARK                         _______ _______ _______ _____ _____    ______ ____
ROOT
ATOM      1  C   UNL     1      -6.223  10.979  17.853  0.00  0.00    +0.141 C 
ENDROOT
BRANCH   1   4
ATOM      2  C   UNL     1      -5.125  11.251  20.049  0.00  0.00    +0.401 C 
ATOM      3  O   UNL     1      -5.114  10.044  20.299  0.00  0.00    -0.226 OA
ATOM      4  N   UNL     1      -5.629  11.777  18.932  0.00  0.00    -0.279 N 
ATOM      5  H   UNL     1      -5.601  12.781  18.823  0.00  0.00    +0.152 HD
BRANCH   2   6
ATOM      6  O   UNL     1      -4.573  12.163  21.003  0.00  0.00    -0.444 OA
BRANCH   6   7
ATOM      7  C   UNL     1      -5.351  12.128  22.203  0.00  0.00    +0.292 C 
BRANCH   7   9
ATOM      8  N   UNL     1      -3.138  11.833  23.256  0.00  0.00    -0.131 NA
ATOM      9  C   UNL     1      -4.499  11.777  23.352  0.00  0.00    +0.121 A 
ATOM     10  C   UNL     1      -4.851  11.420  24.634  0.00  0.00    +0.143 A 
ATOM     11  N   UNL     1      -3.656  11.270  25.294  0.00  0.00    -0.219 N 
ATOM     12  N   UNL     1      -2.635  11.550  24.449  0.00  0.00    -0.060 NA
BRANCH  11  13
ATOM     13  C   UNL     1      -3.409  10.983  26.654  0.00  0.00    +0.080 A 
ATOM     14  C   UNL     1      -3.178   9.693  27.158  0.00  0.00    +0.062 A 
ATOM     15  C   UNL     1      -3.197   9.524  28.562  0.00  0.00    +0.016 A 
ATOM     16  C   UNL     1      -3.410  10.597  29.434  0.00  0.00    +0.021 A 
ATOM     17  C   UNL     1      -3.563  11.874  28.918  0.00  0.00    +0.043 A 
ATOM     18 CL   UNL     1      -3.862  13.199  29.972  0.00  0.00    -0.083 Cl
ATOM     19  C   UNL     1      -3.536  12.076  27.541  0.00  0.00    +0.048 A 
BRANCH  14  20
ATOM     20  C   UNL     1      -2.987   8.419  26.403  0.00  0.00    +0.248 C 
ATOM     21  O   UNL     1      -1.816   8.043  26.303  0.00  0.00    -0.270 OA
ATOM     22  N   UNL     1      -4.025   7.714  25.786  0.00  0.00    -0.304 N 
ATOM     23  C   UNL     1      -5.459   7.943  25.911  0.00  0.00    +0.132 C 
ATOM     24  C   UNL     1      -3.650   6.492  25.081  0.00  0.00    +0.132 C 
ENDBRANCH  14  20
ENDBRANCH  11  13
ENDBRANCH   7   9
ENDBRANCH   6   7
ENDBRANCH   2   6
ENDBRANCH   1   4
BRANCH   1  25
ATOM     25  C   UNL     1      -5.339  10.955  16.610  0.00  0.00    +0.163 C 
BRANCH  25  26
ATOM     26  O   UNL     1      -4.722  12.239  16.422  0.00  0.00    -0.388 OA
ATOM     27  H   UNL     1      -3.768  12.150  16.494  0.00  0.00    +0.210 HD
ENDBRANCH  25  26
BRANCH  25  28
ATOM     28  C   UNL     1      -4.277   9.851  16.756  0.00  0.00    +0.175 C 
BRANCH  28  29
ATOM     29  C   UNL     1      -3.927   9.205  15.408  0.00  0.00    +0.176 C 
ATOM     30  O   UNL     1      -3.133  10.158  14.648  0.00  0.00    -0.332 OA
ATOM     31  C   UNL     1      -2.614   9.671  13.366  0.00  0.00    +0.277 C 
ATOM     32  C   UNL     1      -3.768   9.131  12.486  0.00  0.00    +0.110 C 
ATOM     33  C   UNL     1      -4.658   8.137  13.261  0.00  0.00    +0.143 C 
ATOM     34  C   UNL     1      -5.140   8.745  14.579  0.00  0.00    +0.133 C 
BRANCH  34  35
ATOM     35  N   UNL     1      -5.915   7.758  15.348  0.00  0.00    -0.308 N 
ATOM     36  H   UNL     1      -5.419   6.970  15.740  0.00  0.00    +0.149 HD
ATOM     37  C   UNL     1      -7.231   7.837  15.561  0.00  0.00    +0.210 C 
ATOM     38  C   UNL     1      -7.963   9.035  14.928  0.00  0.00    +0.109 C 
ATOM     39  O   UNL     1      -7.852   7.003  16.222  0.00  0.00    -0.276 OA
ENDBRANCH  34  35
BRANCH  31  40
ATOM     40  C   UNL     1      -1.569   8.558  13.586  0.00  0.00    +0.414 C 
ATOM     41  O   UNL     1      -0.899   8.532  14.618  0.00  0.00    -0.240 OA
ATOM     42  O   UNL     1      -1.395   7.688  12.733  0.00  0.00    -0.240 OA
ENDBRANCH  31  40
BRANCH  33  43
ATOM     43  O   UNL     1      -5.790   7.783  12.465  0.00  0.00    -0.390 OA
ATOM     44  H   UNL     1      -6.534   7.581  13.037  0.00  0.00    +0.210 HD
ENDBRANCH  33  43
BRANCH  31  45
ATOM     45  O   UNL     1      -1.999  10.790  12.678  0.00  0.00    -0.343 OA
ATOM     46  C   UNL     1      -2.835  11.432  11.682  0.00  0.00    +0.198 C 
ENDBRANCH  31  45
ENDBRANCH  28  29
BRANCH  28  47
ATOM     47  O   UNL     1      -4.730   8.846  17.685  0.00  0.00    -0.387 OA
ATOM     48  H   UNL     1      -5.439   8.336  17.286  0.00  0.00    +0.210 HD
ENDBRANCH  28  47
ENDBRANCH  25  28
ENDBRANCH   1  25
TORSDOF 15
