REMARK VINA RESULT:    -4.277      4.326      9.090
REMARK INTER + INTRA:         -11.687
REMARK INTER:                  -9.358
REMARK INTRA:                  -2.329
REMARK UNBOUND:                -2.785
REMARK  Name = lig_assembled_54.pdb
REMARK  24 active torsions:
REMARK  status: ('A' for Active; 'I' for Inactive)
REMARK    1  A    between atoms: _2  and  _9
REMARK    2  A    between atoms: _4  and  _21
REMARK    3  A    between atoms: _5  and  _14
REMARK    4  A    between atoms: _6  and  _7
REMARK    5  A    between atoms: _6  and  _21
REMARK    6  A    between atoms: _9  and  _10
REMARK    7  A    between atoms: _10  and  _11
REMARK    8  A    between atoms: _11  and  _15
REMARK    9  A    between atoms: _11  and  _16
REMARK   10  A    between atoms: _12  and  _13
REMARK   11  A    between atoms: _12  and  _16
REMARK   12  A    between atoms: _14  and  _15
REMARK   13  A    between atoms: _17  and  _37
REMARK   14  A    between atoms: _19  and  _25
REMARK   15  A    between atoms: _20  and  _24
REMARK   16  A    between atoms: _24  and  _25
REMARK   17  A    between atoms: _27  and  _28
REMARK   18  A    between atoms: _29  and  _30
REMARK   19  A    between atoms: _31  and  _33
REMARK   20  A    between atoms: _33  and  _34
REMARK   21  A    between atoms: _33  and  _35
REMARK   22  A    between atoms: _35  and  _36
REMARK   23  A    between atoms: _35  and  _37
REMARK   24  A    between atoms: _38  and  _40
REMARK                            x       y       z     vdW  Elec       q    Type
REMARK                         _______ _______ _______ _____ _____    ______ ____
ROOT
ATOM      1  C   UNL     1      -3.107  11.673  24.372  0.00  0.00    +0.163 C 
ENDROOT
BRANCH   1   2
ATOM      2  O   UNL     1      -2.049  11.966  25.300  0.00  0.00    -0.388 OA
ATOM      3  H   UNL     1      -1.268  11.459  25.066  0.00  0.00    +0.210 HD
ENDBRANCH   1   2
BRANCH   1   4
ATOM      4  C   UNL     1      -4.391  11.264  25.114  0.00  0.00    +0.175 C 
BRANCH   4   5
ATOM      5  C   UNL     1      -4.122  10.210  26.198  0.00  0.00    +0.176 C 
ATOM      6  O   UNL     1      -3.193   9.233  25.651  0.00  0.00    -0.332 OA
ATOM      7  C   UNL     1      -2.736   8.201  26.585  0.00  0.00    +0.277 C 
ATOM      8  C   UNL     1      -3.945   7.473  27.222  0.00  0.00    +0.110 C 
ATOM      9  C   UNL     1      -4.976   8.472  27.790  0.00  0.00    +0.143 C 
ATOM     10  C   UNL     1      -5.380   9.502  26.735  0.00  0.00    +0.133 C 
BRANCH  10  11
ATOM     11  N   UNL     1      -6.295  10.499  27.313  0.00  0.00    -0.308 N 
ATOM     12  H   UNL     1      -5.927  11.127  28.014  0.00  0.00    +0.149 HD
ATOM     13  C   UNL     1      -7.580  10.629  26.971  0.00  0.00    +0.210 C 
ATOM     14  C   UNL     1      -8.116   9.640  25.919  0.00  0.00    +0.109 C 
ATOM     15  O   UNL     1      -8.319  11.483  27.461  0.00  0.00    -0.276 OA
ENDBRANCH  10  11
BRANCH   7  16
ATOM     16  C   UNL     1      -1.861   8.818  27.696  0.00  0.00    +0.414 C 
ATOM     17  O   UNL     1      -1.015   9.667  27.420  0.00  0.00    -0.240 OA
ATOM     18  O   UNL     1      -2.001   8.466  28.869  0.00  0.00    -0.240 OA
ENDBRANCH   7  16
BRANCH   9  19
ATOM     19  O   UNL     1      -6.138   7.767  28.229  0.00  0.00    -0.390 OA
ATOM     20  H   UNL     1      -6.043   6.834  28.025  0.00  0.00    +0.210 HD
ENDBRANCH   9  19
BRANCH   7  21
ATOM     21  O   UNL     1      -1.960   7.230  25.836  0.00  0.00    -0.343 OA
ATOM     22  C   UNL     1      -1.729   5.972  26.520  0.00  0.00    +0.198 C 
ENDBRANCH   7  21
ENDBRANCH   4   5
BRANCH   4  23
ATOM     23  O   UNL     1      -5.371  10.774  24.177  0.00  0.00    -0.387 OA
ATOM     24  H   UNL     1      -4.947  10.188  23.546  0.00  0.00    +0.210 HD
ENDBRANCH   4  23
ENDBRANCH   1   4
BRANCH   1  25
ATOM     25  C   UNL     1      -3.389  12.892  23.500  0.00  0.00    +0.141 C 
BRANCH  25  28
ATOM     26  C   UNL     1      -4.263  12.278  21.273  0.00  0.00    +0.401 C 
ATOM     27  O   UNL     1      -5.435  12.200  21.650  0.00  0.00    -0.226 OA
ATOM     28  N   UNL     1      -3.242  12.589  22.071  0.00  0.00    -0.279 N 
ATOM     29  H   UNL     1      -2.315  12.618  21.671  0.00  0.00    +0.152 HD
BRANCH  26  30
ATOM     30  O   UNL     1      -3.957  12.017  19.900  0.00  0.00    -0.444 OA
BRANCH  30  31
ATOM     31  C   UNL     1      -4.643  10.837  19.473  0.00  0.00    +0.292 C 
BRANCH  31  33
ATOM     32  N   UNL     1      -5.585  12.084  17.552  0.00  0.00    -0.131 NA
ATOM     33  C   UNL     1      -4.999  10.948  18.045  0.00  0.00    +0.120 A 
ATOM     34  C   UNL     1      -4.819  10.049  17.016  0.00  0.00    +0.137 A 
ATOM     35  N   UNL     1      -5.280  10.711  15.918  0.00  0.00    -0.251 N 
ATOM     36  N   UNL     1      -5.746  11.930  16.244  0.00  0.00    -0.065 NA
BRANCH  35  37
ATOM     37  C   UNL     1      -5.258  10.282  14.535  0.00  0.00    +0.150 C 
BRANCH  37  38
ATOM     38  C   UNL     1      -4.047   9.411  14.234  0.00  0.00    +0.084 C 
BRANCH  38  39
ATOM     39  C   UNL     1      -2.718  10.174  14.288  0.00  0.00    +0.252 C 
BRANCH  39  40
ATOM     40  O   UNL     1      -2.888  11.497  13.774  0.00  0.00    -0.352 OA
BRANCH  40  41
ATOM     41  C   UNL     1      -2.612  11.621  12.380  0.00  0.00    +0.159 C 
ATOM     42  C   UNL     1      -1.743  12.843  12.160  0.00  0.00    +0.034 C 
ENDBRANCH  40  41
ENDBRANCH  39  40
BRANCH  39  43
ATOM     43  O   UNL     1      -1.774   9.457  13.483  0.00  0.00    -0.352 OA
BRANCH  43  44
ATOM     44  C   UNL     1      -1.660   8.085  13.866  0.00  0.00    +0.159 C 
ATOM     45  C   UNL     1      -0.870   7.994  15.157  0.00  0.00    +0.034 C 
ENDBRANCH  43  44
ENDBRANCH  39  43
ENDBRANCH  38  39
ENDBRANCH  37  38
ENDBRANCH  35  37
ENDBRANCH  31  33
ENDBRANCH  30  31
ENDBRANCH  26  30
ENDBRANCH  25  28
ENDBRANCH   1  25
TORSDOF 20
