REMARK VINA RESULT:    -4.901      2.883      6.237
REMARK INTER + INTRA:         -11.931
REMARK INTER:                  -9.578
REMARK INTRA:                  -2.353
REMARK UNBOUND:                -2.590
REMARK  Name = lig_assembled_29.pdb
REMARK  21 active torsions:
REMARK  status: ('A' for Active; 'I' for Inactive)
REMARK    1  A    between atoms: _2  and  _9
REMARK    2  A    between atoms: _4  and  _23
REMARK    3  A    between atoms: _6  and  _7
REMARK    4  A    between atoms: _6  and  _23
REMARK    5  A    between atoms: _9  and  _10
REMARK    6  A    between atoms: _12  and  _18
REMARK    7  A    between atoms: _13  and  _18
REMARK    8  A    between atoms: _14  and  _17
REMARK    9  A    between atoms: _15  and  _17
REMARK   10  A    between atoms: _19  and  _39
REMARK   11  A    between atoms: _21  and  _27
REMARK   12  A    between atoms: _22  and  _26
REMARK   13  A    between atoms: _26  and  _27
REMARK   14  A    between atoms: _29  and  _30
REMARK   15  A    between atoms: _31  and  _32
REMARK   16  A    between atoms: _33  and  _35
REMARK   17  A    between atoms: _35  and  _36
REMARK   18  A    between atoms: _35  and  _37
REMARK   19  A    between atoms: _37  and  _38
REMARK   20  A    between atoms: _37  and  _39
REMARK   21  A    between atoms: _40  and  _42
REMARK                            x       y       z     vdW  Elec       q    Type
REMARK                         _______ _______ _______ _____ _____    ______ ____
ROOT
ATOM      1  C   UNL     1      -3.022  12.003  21.917  0.00  0.00    +0.163 C 
ENDROOT
BRANCH   1   2
ATOM      2  O   UNL     1      -2.769  13.267  21.281  0.00  0.00    -0.388 OA
ATOM      3  H   UNL     1      -2.879  13.975  21.920  0.00  0.00    +0.210 HD
ENDBRANCH   1   2
BRANCH   1   4
ATOM      4  C   UNL     1      -3.344  12.193  23.410  0.00  0.00    +0.175 C 
BRANCH   4   5
ATOM      5  C   UNL     1      -4.681  12.917  23.625  0.00  0.00    +0.176 C 
ATOM      6  O   UNL     1      -4.559  14.256  23.071  0.00  0.00    -0.332 OA
ATOM      7  C   UNL     1      -5.782  15.064  23.092  0.00  0.00    +0.277 C 
ATOM      8  C   UNL     1      -6.355  15.142  24.528  0.00  0.00    +0.110 C 
ATOM      9  C   UNL     1      -6.473  13.744  25.171  0.00  0.00    +0.143 C 
ATOM     10  C   UNL     1      -5.146  12.990  25.091  0.00  0.00    +0.133 C 
BRANCH  10  11
ATOM     11  N   UNL     1      -5.294  11.628  25.628  0.00  0.00    -0.308 N 
ATOM     12  H   UNL     1      -5.959  11.014  25.178  0.00  0.00    +0.149 HD
ATOM     13  C   UNL     1      -4.608  11.150  26.670  0.00  0.00    +0.210 C 
ATOM     14  C   UNL     1      -3.623  12.120  27.350  0.00  0.00    +0.109 C 
ATOM     15  O   UNL     1      -4.743  10.000  27.089  0.00  0.00    -0.276 OA
ENDBRANCH  10  11
BRANCH   7  16
ATOM     16  C   UNL     1      -6.845  14.472  22.144  0.00  0.00    +0.414 C 
ATOM     17  O   UNL     1      -6.521  14.049  21.035  0.00  0.00    -0.240 OA
ATOM     18  O   UNL     1      -8.027  14.416  22.488  0.00  0.00    -0.240 OA
ENDBRANCH   7  16
BRANCH   7  19
ATOM     19  O   UNL     1      -5.439  16.407  22.663  0.00  0.00    -0.343 OA
ATOM     20  C   UNL     1      -4.125  16.543  22.065  0.00  0.00    +0.198 C 
ENDBRANCH   7  19
BRANCH   9  21
ATOM     21  O   UNL     1      -6.860  13.874  26.539  0.00  0.00    -0.390 OA
ATOM     22  H   UNL     1      -7.757  13.552  26.651  0.00  0.00    +0.210 HD
ENDBRANCH   9  21
ENDBRANCH   4   5
BRANCH   4  23
ATOM     23  O   UNL     1      -2.278  12.915  24.059  0.00  0.00    -0.387 OA
ATOM     24  H   UNL     1      -1.846  12.342  24.697  0.00  0.00    +0.210 HD
ENDBRANCH   4  23
ENDBRANCH   1   4
BRANCH   1  25
ATOM     25  C   UNL     1      -4.187  11.297  21.231  0.00  0.00    +0.141 C 
BRANCH  25  28
ATOM     26  C   UNL     1      -5.005  11.344  18.900  0.00  0.00    +0.401 C 
ATOM     27  O   UNL     1      -5.084  10.117  18.804  0.00  0.00    -0.226 OA
ATOM     28  N   UNL     1      -4.590  11.981  19.996  0.00  0.00    -0.279 N 
ATOM     29  H   UNL     1      -4.551  12.990  19.975  0.00  0.00    +0.152 HD
BRANCH  26  30
ATOM     30  O   UNL     1      -5.372  12.154  17.780  0.00  0.00    -0.444 OA
BRANCH  30  31
ATOM     31  C   UNL     1      -5.675  11.315  16.663  0.00  0.00    +0.292 C 
BRANCH  31  33
ATOM     32  N   UNL     1      -3.413  11.104  15.668  0.00  0.00    -0.131 NA
ATOM     33  C   UNL     1      -4.708  11.540  15.572  0.00  0.00    +0.120 A 
ATOM     34  C   UNL     1      -4.890  12.142  14.348  0.00  0.00    +0.137 A 
ATOM     35  N   UNL     1      -3.696  11.957  13.712  0.00  0.00    -0.247 N 
ATOM     36  N   UNL     1      -2.797  11.375  14.524  0.00  0.00    -0.065 NA
BRANCH  35  37
ATOM     37  C   UNL     1      -3.361  12.260  12.333  0.00  0.00    +0.180 C 
BRANCH  37  38
ATOM     38  C   UNL     1      -2.345  13.377  12.260  0.00  0.00    -0.022 A 
ATOM     39  C   UNL     1      -2.641  14.639  12.806  0.00  0.00    +0.054 A 
ATOM     40  C   UNL     1      -1.680  15.660  12.815  0.00  0.00    +0.162 A 
ATOM     41  C   UNL     1      -0.406  15.420  12.263  0.00  0.00    +0.162 A 
ATOM     42  C   UNL     1      -0.114  14.165  11.721  0.00  0.00    +0.050 A 
ATOM     43  C   UNL     1      -1.077  13.153  11.718  0.00  0.00    +0.009 A 
BRANCH  40  44
ATOM     44  O   UNL     1      -1.884  16.910  13.346  0.00  0.00    -0.491 OA
ATOM     45  C   UNL     1      -2.792  17.774  12.679  0.00  0.00    +0.277 C 
ENDBRANCH  40  44
BRANCH  41  46
ATOM     46  O   UNL     1       0.478  16.471  12.304  0.00  0.00    -0.491 OA
ATOM     47  C   UNL     1       1.743  16.295  11.682  0.00  0.00    +0.277 C 
ENDBRANCH  41  46
ENDBRANCH  37  38
ENDBRANCH  35  37
ENDBRANCH  31  33
ENDBRANCH  30  31
ENDBRANCH  26  30
ENDBRANCH  25  28
ENDBRANCH   1  25
TORSDOF 17
