REMARK VINA RESULT:    -4.857      3.214      6.155
REMARK INTER + INTRA:         -10.754
REMARK INTER:                  -7.719
REMARK INTRA:                  -3.035
REMARK UNBOUND:                -1.779
REMARK  Name = lig_assembled_14.pdb
REMARK  18 active torsions:
REMARK  status: ('A' for Active; 'I' for Inactive)
REMARK    1  A    between atoms: _2  and  _10
REMARK    2  A    between atoms: _3  and  _11
REMARK    3  A    between atoms: _5  and  _19
REMARK    4  A    between atoms: _7  and  _8
REMARK    5  A    between atoms: _7  and  _19
REMARK    6  A    between atoms: _10  and  _11
REMARK    7  A    between atoms: _15  and  _35
REMARK    8  A    between atoms: _17  and  _23
REMARK    9  A    between atoms: _18  and  _22
REMARK   10  A    between atoms: _22  and  _23
REMARK   11  A    between atoms: _25  and  _26
REMARK   12  A    between atoms: _27  and  _28
REMARK   13  A    between atoms: _29  and  _31
REMARK   14  A    between atoms: _31  and  _32
REMARK   15  A    between atoms: _31  and  _33
REMARK   16  A    between atoms: _33  and  _34
REMARK   17  A    between atoms: _33  and  _35
REMARK   18  A    between atoms: _36  and  _38
REMARK                            x       y       z     vdW  Elec       q    Type
REMARK                         _______ _______ _______ _____ _____    ______ ____
ROOT
ATOM      1  C   UNL     1      -3.115  11.278  26.106  0.00  0.00    +0.163 C 
ENDROOT
BRANCH   1   2
ATOM      2  O   UNL     1      -2.008  11.884  25.420  0.00  0.00    -0.388 OA
ATOM      3  H   UNL     1      -1.575  12.513  26.002  0.00  0.00    +0.210 HD
ENDBRANCH   1   2
BRANCH   1   4
ATOM      4  C   UNL     1      -4.021  10.515  25.123  0.00  0.00    +0.175 C 
BRANCH   4   5
ATOM      5  C   UNL     1      -4.834  11.465  24.231  0.00  0.00    +0.176 C 
ATOM      6  O   UNL     1      -3.915  12.104  23.303  0.00  0.00    -0.332 OA
ATOM      7  C   UNL     1      -4.533  12.973  22.297  0.00  0.00    +0.277 C 
ATOM      8  C   UNL     1      -5.419  14.045  22.977  0.00  0.00    +0.110 C 
ATOM      9  C   UNL     1      -6.392  13.416  23.997  0.00  0.00    +0.143 C 
ATOM     10  C   UNL     1      -5.644  12.530  24.994  0.00  0.00    +0.133 C 
BRANCH  10  11
ATOM     11  N   UNL     1      -6.590  11.868  25.906  0.00  0.00    -0.308 N 
ATOM     12  H   UNL     1      -7.214  11.175  25.517  0.00  0.00    +0.149 HD
ATOM     13  C   UNL     1      -6.679  12.123  27.214  0.00  0.00    +0.210 C 
ATOM     14  C   UNL     1      -5.732  13.203  27.772  0.00  0.00    +0.109 C 
ATOM     15  O   UNL     1      -7.471  11.542  27.957  0.00  0.00    -0.276 OA
ENDBRANCH  10  11
BRANCH   7  16
ATOM     16  C   UNL     1      -5.387  12.148  21.312  0.00  0.00    +0.414 C 
ATOM     17  O   UNL     1      -5.171  10.946  21.160  0.00  0.00    -0.240 OA
ATOM     18  O   UNL     1      -6.291  12.683  20.669  0.00  0.00    -0.240 OA
ENDBRANCH   7  16
BRANCH   9  19
ATOM     19  O   UNL     1      -7.079  14.447  24.707  0.00  0.00    -0.390 OA
ATOM     20  H   UNL     1      -8.009  14.220  24.782  0.00  0.00    +0.210 HD
ENDBRANCH   9  19
BRANCH   7  21
ATOM     21  O   UNL     1      -3.471  13.649  21.575  0.00  0.00    -0.343 OA
ATOM     22  C   UNL     1      -3.213  15.011  21.999  0.00  0.00    +0.198 C 
ENDBRANCH   7  21
ENDBRANCH   4   5
BRANCH   4  23
ATOM     23  O   UNL     1      -4.903   9.632  25.844  0.00  0.00    -0.387 OA
ATOM     24  H   UNL     1      -4.385   8.980  26.321  0.00  0.00    +0.210 HD
ENDBRANCH   4  23
ENDBRANCH   1   4
BRANCH   1  25
ATOM     25  C   UNL     1      -2.604  10.319  27.176  0.00  0.00    +0.141 C 
BRANCH  25  28
ATOM     26  C   UNL     1      -4.050  10.225  29.178  0.00  0.00    +0.401 C 
ATOM     27  O   UNL     1      -4.792   9.354  28.717  0.00  0.00    -0.226 OA
ATOM     28  N   UNL     1      -3.007  10.738  28.524  0.00  0.00    -0.279 N 
ATOM     29  H   UNL     1      -2.464  11.456  28.982  0.00  0.00    +0.152 HD
BRANCH  26  30
ATOM     30  O   UNL     1      -4.308  10.733  30.489  0.00  0.00    -0.444 OA
BRANCH  30  31
ATOM     31  C   UNL     1      -3.068  10.994  31.152  0.00  0.00    +0.292 C 
BRANCH  31  33
ATOM     32  N   UNL     1      -1.966  12.863  32.343  0.00  0.00    -0.131 NA
ATOM     33  C   UNL     1      -2.978  12.416  31.535  0.00  0.00    +0.120 A 
ATOM     34  C   UNL     1      -3.800  13.473  31.216  0.00  0.00    +0.137 A 
ATOM     35  N   UNL     1      -3.242  14.529  31.869  0.00  0.00    -0.250 N 
ATOM     36  N   UNL     1      -2.135  14.162  32.539  0.00  0.00    -0.065 NA
BRANCH  35  37
ATOM     37  C   UNL     1      -3.726  15.890  31.951  0.00  0.00    +0.160 C 
BRANCH  37  38
ATOM     38  C   UNL     1      -5.257  15.949  32.012  0.00  0.00    +0.107 C 
BRANCH  38  39
ATOM     39  N   UNL     1      -5.840  16.829  30.984  0.00  0.00    -0.301 NA
ATOM     40  C   UNL     1      -4.833  17.595  30.243  0.00  0.00    +0.084 C 
ATOM     41  C   UNL     1      -5.607  18.065  29.028  0.00  0.00    +0.017 C 
ATOM     42  C   UNL     1      -6.500  16.885  28.689  0.00  0.00    +0.017 C 
ATOM     43  C   UNL     1      -6.587  16.065  29.973  0.00  0.00    +0.084 C 
ENDBRANCH  38  39
ENDBRANCH  37  38
ENDBRANCH  35  37
ENDBRANCH  31  33
ENDBRANCH  30  31
ENDBRANCH  26  30
ENDBRANCH  25  28
ENDBRANCH   1  25
TORSDOF 16
