REMARK VINA RESULT:    -4.185      4.456     12.371
REMARK INTER + INTRA:         -11.267
REMARK INTER:                  -8.981
REMARK INTRA:                  -2.286
REMARK UNBOUND:                -3.657
REMARK  Name = lig_assembled_88.pdb
REMARK  18 active torsions:
REMARK  status: ('A' for Active; 'I' for Inactive)
REMARK    1  A    between atoms: _2  and  _9
REMARK    2  A    between atoms: _4  and  _20
REMARK    3  A    between atoms: _5  and  _15
REMARK    4  A    between atoms: _6  and  _7
REMARK    5  A    between atoms: _6  and  _20
REMARK    6  A    between atoms: _9  and  _10
REMARK    7  A    between atoms: _16  and  _36
REMARK    8  A    between atoms: _18  and  _24
REMARK    9  A    between atoms: _19  and  _23
REMARK   10  A    between atoms: _23  and  _24
REMARK   11  A    between atoms: _26  and  _27
REMARK   12  A    between atoms: _28  and  _29
REMARK   13  A    between atoms: _30  and  _32
REMARK   14  A    between atoms: _32  and  _33
REMARK   15  A    between atoms: _32  and  _34
REMARK   16  A    between atoms: _34  and  _35
REMARK   17  A    between atoms: _34  and  _36
REMARK   18  A    between atoms: _37  and  _39
REMARK                            x       y       z     vdW  Elec       q    Type
REMARK                         _______ _______ _______ _____ _____    ______ ____
ROOT
ATOM      1  C   UNL     1      -4.165  12.540  14.746  0.00  0.00    +0.163 C 
ENDROOT
BRANCH   1   2
ATOM      2  O   UNL     1      -3.004  12.474  15.591  0.00  0.00    -0.388 OA
ATOM      3  H   UNL     1      -2.620  13.350  15.677  0.00  0.00    +0.210 HD
ENDBRANCH   1   2
BRANCH   1   4
ATOM      4  C   UNL     1      -3.870  11.944  13.359  0.00  0.00    +0.175 C 
BRANCH   4   5
ATOM      5  C   UNL     1      -3.671  10.422  13.414  0.00  0.00    +0.176 C 
ATOM      6  O   UNL     1      -2.528  10.151  14.271  0.00  0.00    -0.332 OA
ATOM      7  C   UNL     1      -2.250   8.735  14.528  0.00  0.00    +0.277 C 
ATOM      8  C   UNL     1      -2.098   7.963  13.194  0.00  0.00    +0.110 C 
ATOM      9  C   UNL     1      -3.274   8.245  12.236  0.00  0.00    +0.143 C 
ATOM     10  C   UNL     1      -3.477   9.748  12.043  0.00  0.00    +0.133 C 
BRANCH  10  11
ATOM     11  N   UNL     1      -4.653  10.005  11.198  0.00  0.00    -0.308 N 
ATOM     12  H   UNL     1      -5.559   9.733  11.554  0.00  0.00    +0.149 HD
ATOM     13  C   UNL     1      -4.603  10.574   9.990  0.00  0.00    +0.210 C 
ATOM     14  C   UNL     1      -3.206  10.953   9.464  0.00  0.00    +0.109 C 
ATOM     15  O   UNL     1      -5.607  10.791   9.311  0.00  0.00    -0.276 OA
ENDBRANCH  10  11
BRANCH   7  16
ATOM     16  C   UNL     1      -3.379   8.099  15.366  0.00  0.00    +0.414 C 
ATOM     17  O   UNL     1      -3.742   8.625  16.418  0.00  0.00    -0.240 OA
ATOM     18  O   UNL     1      -3.926   7.061  14.991  0.00  0.00    -0.240 OA
ENDBRANCH   7  16
BRANCH   7  19
ATOM     19  O   UNL     1      -0.996   8.648  15.252  0.00  0.00    -0.343 OA
ATOM     20  C   UNL     1      -0.601   7.306  15.634  0.00  0.00    +0.198 C 
ENDBRANCH   7  19
BRANCH   9  21
ATOM     21  O   UNL     1      -3.020   7.638  10.969  0.00  0.00    -0.390 OA
ATOM     22  H   UNL     1      -2.521   6.828  11.096  0.00  0.00    +0.210 HD
ENDBRANCH   9  21
ENDBRANCH   4   5
BRANCH   4  23
ATOM     23  O   UNL     1      -2.709  12.577  12.784  0.00  0.00    -0.387 OA
ATOM     24  H   UNL     1      -2.977  13.367  12.309  0.00  0.00    +0.210 HD
ENDBRANCH   4  23
ENDBRANCH   1   4
BRANCH   1  25
ATOM     25  C   UNL     1      -5.322  11.783  15.390  0.00  0.00    +0.141 C 
BRANCH  25  28
ATOM     26  C   UNL     1      -5.577  11.388  17.816  0.00  0.00    +0.401 C 
ATOM     27  O   UNL     1      -6.556  12.128  17.929  0.00  0.00    -0.226 OA
ATOM     28  N   UNL     1      -4.934  11.173  16.668  0.00  0.00    -0.279 N 
ATOM     29  H   UNL     1      -4.134  10.555  16.677  0.00  0.00    +0.152 HD
BRANCH  26  30
ATOM     30  O   UNL     1      -5.081  10.711  18.974  0.00  0.00    -0.444 OA
BRANCH  30  31
ATOM     31  C   UNL     1      -5.594  11.339  20.151  0.00  0.00    +0.292 C 
BRANCH  31  33
ATOM     32  N   UNL     1      -3.736  10.419  21.505  0.00  0.00    -0.131 NA
ATOM     33  C   UNL     1      -4.533  11.481  21.166  0.00  0.00    +0.120 A 
ATOM     34  C   UNL     1      -4.170  12.575  21.919  0.00  0.00    +0.137 A 
ATOM     35  N   UNL     1      -3.200  12.093  22.748  0.00  0.00    -0.247 N 
ATOM     36  N   UNL     1      -2.906  10.811  22.461  0.00  0.00    -0.065 NA
BRANCH  35  37
ATOM     37  C   UNL     1      -2.563  12.765  23.871  0.00  0.00    +0.184 C 
BRANCH  37  38
ATOM     38  C   UNL     1      -3.268  12.520  25.190  0.00  0.00    +0.017 A 
ATOM     39  C   UNL     1      -4.364  13.295  25.617  0.00  0.00    +0.024 A 
ATOM     40  C   UNL     1      -4.989  13.041  26.841  0.00  0.00    +0.019 A 
ATOM     41 BR   UNL     1      -6.426  14.135  27.401  0.00  0.00    -0.050 Br
ATOM     42  C   UNL     1      -4.565  11.995  27.654  0.00  0.00    +0.034 A 
ATOM     43  C   UNL     1      -3.513  11.191  27.224  0.00  0.00    +0.061 A 
ATOM     44 BR   UNL     1      -2.962   9.744  28.319  0.00  0.00    -0.046 Br
ATOM     45  C   UNL     1      -2.874  11.448  26.003  0.00  0.00    +0.136 A 
BRANCH  45  46
ATOM     46  O   UNL     1      -1.848  10.653  25.564  0.00  0.00    -0.505 OA
ATOM     47  H   UNL     1      -1.537  10.127  26.325  0.00  0.00    +0.292 HD
ENDBRANCH  45  46
ENDBRANCH  37  38
ENDBRANCH  35  37
ENDBRANCH  31  33
ENDBRANCH  30  31
ENDBRANCH  26  30
ENDBRANCH  25  28
ENDBRANCH   1  25
TORSDOF 16
