REMARK VINA RESULT:    -5.083      4.934     10.157
REMARK INTER + INTRA:         -11.172
REMARK INTER:                  -9.393
REMARK INTRA:                  -1.779
REMARK UNBOUND:                -1.779
REMARK  Name = lig_assembled_14.pdb
REMARK  18 active torsions:
REMARK  status: ('A' for Active; 'I' for Inactive)
REMARK    1  A    between atoms: _2  and  _10
REMARK    2  A    between atoms: _3  and  _11
REMARK    3  A    between atoms: _5  and  _19
REMARK    4  A    between atoms: _7  and  _8
REMARK    5  A    between atoms: _7  and  _19
REMARK    6  A    between atoms: _10  and  _11
REMARK    7  A    between atoms: _15  and  _35
REMARK    8  A    between atoms: _17  and  _23
REMARK    9  A    between atoms: _18  and  _22
REMARK   10  A    between atoms: _22  and  _23
REMARK   11  A    between atoms: _25  and  _26
REMARK   12  A    between atoms: _27  and  _28
REMARK   13  A    between atoms: _29  and  _31
REMARK   14  A    between atoms: _31  and  _32
REMARK   15  A    between atoms: _31  and  _33
REMARK   16  A    between atoms: _33  and  _34
REMARK   17  A    between atoms: _33  and  _35
REMARK   18  A    between atoms: _36  and  _38
REMARK                            x       y       z     vdW  Elec       q    Type
REMARK                         _______ _______ _______ _____ _____    ______ ____
ROOT
ATOM      1  C   UNL     1      -4.015  11.474  22.025  0.00  0.00    +0.163 C 
ENDROOT
BRANCH   1   2
ATOM      2  O   UNL     1      -3.648  10.207  21.456  0.00  0.00    -0.388 OA
ATOM      3  H   UNL     1      -2.709  10.057  21.586  0.00  0.00    +0.210 HD
ENDBRANCH   1   2
BRANCH   1   4
ATOM      4  C   UNL     1      -2.994  11.917  23.088  0.00  0.00    +0.175 C 
BRANCH   4   5
ATOM      5  C   UNL     1      -3.342  11.379  24.483  0.00  0.00    +0.176 C 
ATOM      6  O   UNL     1      -3.120   9.941  24.476  0.00  0.00    -0.332 OA
ATOM      7  C   UNL     1      -3.301   9.266  25.765  0.00  0.00    +0.277 C 
ATOM      8  C   UNL     1      -4.702   9.576  26.346  0.00  0.00    +0.110 C 
ATOM      9  C   UNL     1      -4.997  11.091  26.345  0.00  0.00    +0.143 C 
ATOM     10  C   UNL     1      -4.773  11.692  24.956  0.00  0.00    +0.133 C 
BRANCH  10  11
ATOM     11  N   UNL     1      -4.973  13.150  24.987  0.00  0.00    -0.308 N 
ATOM     12  H   UNL     1      -4.304  13.706  25.501  0.00  0.00    +0.149 HD
ATOM     13  C   UNL     1      -5.979  13.785  24.381  0.00  0.00    +0.210 C 
ATOM     14  C   UNL     1      -6.995  12.906  23.627  0.00  0.00    +0.109 C 
ATOM     15  O   UNL     1      -6.112  15.009  24.412  0.00  0.00    -0.276 OA
ENDBRANCH  10  11
BRANCH   7  16
ATOM     16  C   UNL     1      -2.217   9.706  26.770  0.00  0.00    +0.414 C 
ATOM     17  O   UNL     1      -1.048   9.833  26.406  0.00  0.00    -0.240 OA
ATOM     18  O   UNL     1      -2.510   9.933  27.945  0.00  0.00    -0.240 OA
ENDBRANCH   7  16
BRANCH   9  19
ATOM     19  O   UNL     1      -6.348  11.320  26.744  0.00  0.00    -0.390 OA
ATOM     20  H   UNL     1      -6.532  10.829  27.549  0.00  0.00    +0.210 HD
ENDBRANCH   9  19
BRANCH   7  21
ATOM     21  O   UNL     1      -3.206   7.836  25.539  0.00  0.00    -0.343 OA
ATOM     22  C   UNL     1      -4.101   7.316  24.523  0.00  0.00    +0.198 C 
ENDBRANCH   7  21
ENDBRANCH   4   5
BRANCH   4  23
ATOM     23  O   UNL     1      -2.901  13.355  23.119  0.00  0.00    -0.387 OA
ATOM     24  H   UNL     1      -2.294  13.622  23.813  0.00  0.00    +0.210 HD
ENDBRANCH   4  23
ENDBRANCH   1   4
BRANCH   1  25
ATOM     25  C   UNL     1      -4.102  12.533  20.931  0.00  0.00    +0.141 C 
BRANCH  25  28
ATOM     26  C   UNL     1      -5.180  11.710  18.865  0.00  0.00    +0.401 C 
ATOM     27  O   UNL     1      -6.324  11.966  19.248  0.00  0.00    -0.226 OA
ATOM     28  N   UNL     1      -4.084  11.936  19.590  0.00  0.00    -0.279 N 
ATOM     29  H   UNL     1      -3.190  11.682  19.193  0.00  0.00    +0.152 HD
BRANCH  26  30
ATOM     30  O   UNL     1      -4.995  11.130  17.572  0.00  0.00    -0.444 OA
BRANCH  30  31
ATOM     31  C   UNL     1      -5.090  12.149  16.573  0.00  0.00    +0.292 C 
BRANCH  31  33
ATOM     32  N   UNL     1      -3.239  10.875  15.536  0.00  0.00    -0.131 NA
ATOM     33  C   UNL     1      -4.212  11.835  15.431  0.00  0.00    +0.120 A 
ATOM     34  C   UNL     1      -4.171  12.381  14.167  0.00  0.00    +0.137 A 
ATOM     35  N   UNL     1      -3.147  11.721  13.560  0.00  0.00    -0.250 N 
ATOM     36  N   UNL     1      -2.595  10.811  14.381  0.00  0.00    -0.065 NA
BRANCH  35  37
ATOM     37  C   UNL     1      -2.604  11.934  12.236  0.00  0.00    +0.160 C 
BRANCH  37  38
ATOM     38  C   UNL     1      -2.663  13.410  11.826  0.00  0.00    +0.107 C 
BRANCH  38  39
ATOM     39  N   UNL     1      -1.649  14.237  12.504  0.00  0.00    -0.301 NA
ATOM     40  C   UNL     1      -0.311  14.099  11.922  0.00  0.00    +0.084 C 
ATOM     41  C   UNL     1       0.417  15.305  12.482  0.00  0.00    +0.017 C 
ATOM     42  C   UNL     1      -0.635  16.399  12.471  0.00  0.00    +0.017 C 
ATOM     43  C   UNL     1      -1.974  15.669  12.428  0.00  0.00    +0.084 C 
ENDBRANCH  38  39
ENDBRANCH  37  38
ENDBRANCH  35  37
ENDBRANCH  31  33
ENDBRANCH  30  31
ENDBRANCH  26  30
ENDBRANCH  25  28
ENDBRANCH   1  25
TORSDOF 16
