REMARK VINA RESULT:    -5.561      1.053      1.450
REMARK INTER + INTRA:         -11.954
REMARK INTER:                  -9.897
REMARK INTRA:                  -2.057
REMARK UNBOUND:                -2.004
REMARK  Name = lig_assembled_6.pdb
REMARK  17 active torsions:
REMARK  status: ('A' for Active; 'I' for Inactive)
REMARK    1  A    between atoms: _2  and  _10
REMARK    2  A    between atoms: _3  and  _13
REMARK    3  A    between atoms: _5  and  _21
REMARK    4  A    between atoms: _7  and  _8
REMARK    5  A    between atoms: _7  and  _21
REMARK    6  A    between atoms: _17  and  _37
REMARK    7  A    between atoms: _19  and  _25
REMARK    8  A    between atoms: _20  and  _24
REMARK    9  A    between atoms: _24  and  _25
REMARK   10  A    between atoms: _27  and  _28
REMARK   11  A    between atoms: _29  and  _30
REMARK   12  A    between atoms: _31  and  _33
REMARK   13  A    between atoms: _33  and  _34
REMARK   14  A    between atoms: _33  and  _35
REMARK   15  A    between atoms: _35  and  _36
REMARK   16  A    between atoms: _35  and  _37
REMARK   17  A    between atoms: _38  and  _40
REMARK                            x       y       z     vdW  Elec       q    Type
REMARK                         _______ _______ _______ _____ _____    ______ ____
ROOT
ATOM      1  C   UNL     1      -3.262  11.773  25.120  0.00  0.00    +0.163 C 
ENDROOT
BRANCH   1   2
ATOM      2  O   UNL     1      -1.975  11.137  25.059  0.00  0.00    -0.388 OA
ATOM      3  H   UNL     1      -1.480  11.486  24.313  0.00  0.00    +0.210 HD
ENDBRANCH   1   2
BRANCH   1   4
ATOM      4  C   UNL     1      -3.214  13.118  24.402  0.00  0.00    +0.141 C 
BRANCH   4   7
ATOM      5  C   UNL     1      -5.072  12.943  22.782  0.00  0.00    +0.401 C 
ATOM      6  O   UNL     1      -5.949  12.911  23.648  0.00  0.00    -0.226 OA
ATOM      7  N   UNL     1      -3.768  13.033  23.045  0.00  0.00    -0.279 N 
ATOM      8  H   UNL     1      -3.124  13.043  22.266  0.00  0.00    +0.152 HD
BRANCH   5   9
ATOM      9  O   UNL     1      -5.453  12.878  21.405  0.00  0.00    -0.444 OA
BRANCH   9  10
ATOM     10  C   UNL     1      -6.011  11.592  21.124  0.00  0.00    +0.292 C 
BRANCH  10  12
ATOM     11  N   UNL     1      -5.178   9.690  19.775  0.00  0.00    -0.131 NA
ATOM     12  C   UNL     1      -5.413  11.029  19.899  0.00  0.00    +0.121 A 
ATOM     13  C   UNL     1      -5.019  11.663  18.743  0.00  0.00    +0.143 A 
ATOM     14  N   UNL     1      -4.574  10.655  17.919  0.00  0.00    -0.220 N 
ATOM     15  N   UNL     1      -4.662   9.471  18.573  0.00  0.00    -0.060 NA
BRANCH  14  16
ATOM     16  C   UNL     1      -4.122  10.741  16.575  0.00  0.00    +0.067 A 
ATOM     17  C   UNL     1      -3.896   9.579  15.821  0.00  0.00    +0.034 A 
ATOM     18  C   UNL     1      -3.391   9.674  14.520  0.00  0.00    +0.086 A 
ATOM     19  C   UNL     1      -3.114  10.931  13.970  0.00  0.00    +0.273 A 
ATOM     20  C   UNL     1      -3.360  12.097  14.705  0.00  0.00    +0.086 A 
ATOM     21  C   UNL     1      -3.866  11.999  16.006  0.00  0.00    +0.034 A 
BRANCH  19  22
ATOM     22  N   UNL     1      -2.543  11.022  12.620  0.00  0.00    +0.080 N 
ATOM     23  O   UNL     1      -2.826  10.123  11.815  0.00  0.00    +0.041 OA
ATOM     24  O   UNL     1      -1.808  11.986  12.368  0.00  0.00    -0.576 OA
ENDBRANCH  19  22
ENDBRANCH  14  16
ENDBRANCH  10  12
ENDBRANCH   9  10
ENDBRANCH   5   9
ENDBRANCH   4   7
ENDBRANCH   1   4
BRANCH   1  25
ATOM     25  C   UNL     1      -3.702  11.986  26.579  0.00  0.00    +0.175 C 
BRANCH  25  26
ATOM     26  C   UNL     1      -3.408  10.759  27.456  0.00  0.00    +0.176 C 
ATOM     27  O   UNL     1      -3.998   9.597  26.811  0.00  0.00    -0.332 OA
ATOM     28  C   UNL     1      -3.726   8.309  27.456  0.00  0.00    +0.277 C 
ATOM     29  C   UNL     1      -4.145   8.350  28.946  0.00  0.00    +0.110 C 
ATOM     30  C   UNL     1      -3.567   9.587  29.666  0.00  0.00    +0.143 C 
ATOM     31  C   UNL     1      -3.907  10.871  28.908  0.00  0.00    +0.133 C 
BRANCH  31  32
ATOM     32  N   UNL     1      -3.277  12.033  29.556  0.00  0.00    -0.308 N 
ATOM     33  H   UNL     1      -2.268  12.074  29.573  0.00  0.00    +0.149 HD
ATOM     34  C   UNL     1      -3.953  13.036  30.123  0.00  0.00    +0.210 C 
ATOM     35  C   UNL     1      -5.489  12.931  30.103  0.00  0.00    +0.109 C 
ATOM     36  O   UNL     1      -3.399  14.004  30.645  0.00  0.00    -0.276 OA
ENDBRANCH  31  32
BRANCH  28  37
ATOM     37  C   UNL     1      -2.230   7.949  27.351  0.00  0.00    +0.414 C 
ATOM     38  O   UNL     1      -1.570   8.320  26.381  0.00  0.00    -0.240 OA
ATOM     39  O   UNL     1      -1.683   7.290  28.236  0.00  0.00    -0.240 OA
ENDBRANCH  28  37
BRANCH  30  40
ATOM     40  O   UNL     1      -4.099   9.667  30.989  0.00  0.00    -0.390 OA
ATOM     41  H   UNL     1      -4.786   9.005  31.099  0.00  0.00    +0.210 HD
ENDBRANCH  30  40
BRANCH  28  42
ATOM     42  O   UNL     1      -4.520   7.296  26.786  0.00  0.00    -0.343 OA
ATOM     43  C   UNL     1      -4.658   7.474  25.354  0.00  0.00    +0.198 C 
ENDBRANCH  28  42
ENDBRANCH  25  26
BRANCH  25  44
ATOM     44  O   UNL     1      -5.106  12.309  26.632  0.00  0.00    -0.387 OA
ATOM     45  H   UNL     1      -5.525  11.802  27.332  0.00  0.00    +0.210 HD
ENDBRANCH  25  44
ENDBRANCH   1  25
TORSDOF 15
