REMARK VINA RESULT:    -4.764      5.913      9.907
REMARK INTER + INTRA:         -11.158
REMARK INTER:                  -8.844
REMARK INTRA:                  -2.314
REMARK UNBOUND:                -2.913
REMARK  Name = lig_assembled_93.pdb
REMARK  16 active torsions:
REMARK  status: ('A' for Active; 'I' for Inactive)
REMARK    1  A    between atoms: _2  and  _9
REMARK    2  A    between atoms: _4  and  _18
REMARK    3  A    between atoms: _6  and  _7
REMARK    4  A    between atoms: _6  and  _18
REMARK    5  A    between atoms: _14  and  _34
REMARK    6  A    between atoms: _16  and  _22
REMARK    7  A    between atoms: _17  and  _21
REMARK    8  A    between atoms: _21  and  _22
REMARK    9  A    between atoms: _24  and  _25
REMARK   10  A    between atoms: _26  and  _27
REMARK   11  A    between atoms: _28  and  _30
REMARK   12  A    between atoms: _30  and  _31
REMARK   13  A    between atoms: _30  and  _32
REMARK   14  A    between atoms: _32  and  _33
REMARK   15  A    between atoms: _32  and  _34
REMARK   16  A    between atoms: _35  and  _37
REMARK                            x       y       z     vdW  Elec       q    Type
REMARK                         _______ _______ _______ _____ _____    ______ ____
ROOT
ATOM      1  C   UNL     1      -4.099   8.604  13.881  0.00  0.00    +0.163 C 
ENDROOT
BRANCH   1   2
ATOM      2  O   UNL     1      -5.442   9.082  13.698  0.00  0.00    -0.388 OA
ATOM      3  H   UNL     1      -5.620   9.188  12.760  0.00  0.00    +0.210 HD
ENDBRANCH   1   2
BRANCH   1   4
ATOM      4  C   UNL     1      -4.059   7.580  15.010  0.00  0.00    +0.141 C 
BRANCH   4   7
ATOM      5  C   UNL     1      -5.039   8.528  17.070  0.00  0.00    +0.401 C 
ATOM      6  O   UNL     1      -6.204   8.317  16.725  0.00  0.00    -0.226 OA
ATOM      7  N   UNL     1      -3.975   8.221  16.328  0.00  0.00    -0.279 N 
ATOM      8  H   UNL     1      -3.059   8.442  16.693  0.00  0.00    +0.152 HD
BRANCH   5   9
ATOM      9  O   UNL     1      -4.791   9.142  18.338  0.00  0.00    -0.444 OA
BRANCH   9  10
ATOM     10  C   UNL     1      -6.019   9.633  18.880  0.00  0.00    +0.292 C 
BRANCH  10  12
ATOM     11  N   UNL     1      -6.850  10.359  21.088  0.00  0.00    -0.131 NA
ATOM     12  C   UNL     1      -5.805  10.153  20.244  0.00  0.00    +0.121 A 
ATOM     13  C   UNL     1      -4.640  10.496  20.888  0.00  0.00    +0.143 A 
ATOM     14  N   UNL     1      -5.021  10.900  22.157  0.00  0.00    -0.219 N 
ATOM     15  N   UNL     1      -6.367  10.814  22.234  0.00  0.00    -0.060 NA
BRANCH  14  16
ATOM     16  C   UNL     1      -4.184  11.325  23.237  0.00  0.00    +0.080 A 
ATOM     17  C   UNL     1      -3.669  10.327  24.098  0.00  0.00    +0.029 A 
ATOM     18  C   UNL     1      -2.858  10.645  25.191  0.00  0.00    +0.002 A 
ATOM     19  C   UNL     1      -2.538  11.966  25.455  0.00  0.00    +0.001 A 
ATOM     20  C   UNL     1      -3.025  12.969  24.621  0.00  0.00    +0.016 A 
ATOM     21  C   UNL     1      -3.844  12.666  23.511  0.00  0.00    +0.039 A 
ATOM     22  I   UNL     1      -4.418  14.398  22.439  0.00  0.00    -0.042 I 
ENDBRANCH  14  16
ENDBRANCH  10  12
ENDBRANCH   9  10
ENDBRANCH   5   9
ENDBRANCH   4   7
ENDBRANCH   1   4
BRANCH   1  23
ATOM     23  C   UNL     1      -3.142   9.765  14.205  0.00  0.00    +0.175 C 
BRANCH  23  24
ATOM     24  C   UNL     1      -3.298  10.934  13.222  0.00  0.00    +0.176 C 
ATOM     25  O   UNL     1      -1.995  11.203  12.636  0.00  0.00    -0.332 OA
ATOM     26  C   UNL     1      -1.970  12.227  11.587  0.00  0.00    +0.277 C 
ATOM     27  C   UNL     1      -2.593  13.546  12.105  0.00  0.00    +0.110 C 
ATOM     28  C   UNL     1      -3.967  13.307  12.765  0.00  0.00    +0.143 C 
ATOM     29  C   UNL     1      -3.878  12.221  13.838  0.00  0.00    +0.133 C 
BRANCH  29  30
ATOM     30  N   UNL     1      -5.209  11.941  14.399  0.00  0.00    -0.308 N 
ATOM     31  H   UNL     1      -5.952  11.705  13.756  0.00  0.00    +0.149 HD
ATOM     32  C   UNL     1      -5.500  11.978  15.702  0.00  0.00    +0.210 C 
ATOM     33  C   UNL     1      -4.353  12.366  16.654  0.00  0.00    +0.109 C 
ATOM     34  O   UNL     1      -6.621  11.724  16.145  0.00  0.00    -0.276 OA
ENDBRANCH  29  30
BRANCH  26  35
ATOM     35  C   UNL     1      -2.739  11.749  10.338  0.00  0.00    +0.414 C 
ATOM     36  O   UNL     1      -3.594  12.468   9.823  0.00  0.00    -0.240 OA
ATOM     37  O   UNL     1      -2.504  10.645   9.845  0.00  0.00    -0.240 OA
ENDBRANCH  26  35
BRANCH  28  38
ATOM     38  O   UNL     1      -4.433  14.519  13.360  0.00  0.00    -0.390 OA
ATOM     39  H   UNL     1      -4.666  14.357  14.277  0.00  0.00    +0.210 HD
ENDBRANCH  28  38
BRANCH  26  40
ATOM     40  O   UNL     1      -0.584  12.480  11.240  0.00  0.00    -0.343 OA
ATOM     41  C   UNL     1      -0.377  13.563  10.298  0.00  0.00    +0.198 C 
ENDBRANCH  26  40
ENDBRANCH  23  24
BRANCH  23  42
ATOM     42  O   UNL     1      -1.779   9.297  14.209  0.00  0.00    -0.387 OA
ATOM     43  H   UNL     1      -1.704   8.531  14.782  0.00  0.00    +0.210 HD
ENDBRANCH  23  42
ENDBRANCH   1  23
TORSDOF 14
