REMARK VINA RESULT:    -5.424      2.912      5.199
REMARK INTER + INTRA:         -11.709
REMARK INTER:                  -8.909
REMARK INTRA:                  -2.800
REMARK UNBOUND:                -2.004
REMARK  Name = lig_assembled_6.pdb
REMARK  17 active torsions:
REMARK  status: ('A' for Active; 'I' for Inactive)
REMARK    1  A    between atoms: _2  and  _10
REMARK    2  A    between atoms: _3  and  _13
REMARK    3  A    between atoms: _5  and  _21
REMARK    4  A    between atoms: _7  and  _8
REMARK    5  A    between atoms: _7  and  _21
REMARK    6  A    between atoms: _17  and  _37
REMARK    7  A    between atoms: _19  and  _25
REMARK    8  A    between atoms: _20  and  _24
REMARK    9  A    between atoms: _24  and  _25
REMARK   10  A    between atoms: _27  and  _28
REMARK   11  A    between atoms: _29  and  _30
REMARK   12  A    between atoms: _31  and  _33
REMARK   13  A    between atoms: _33  and  _34
REMARK   14  A    between atoms: _33  and  _35
REMARK   15  A    between atoms: _35  and  _36
REMARK   16  A    between atoms: _35  and  _37
REMARK   17  A    between atoms: _38  and  _40
REMARK                            x       y       z     vdW  Elec       q    Type
REMARK                         _______ _______ _______ _____ _____    ______ ____
ROOT
ATOM      1  C   UNL     1      -5.063   7.210  23.794  0.00  0.00    +0.163 C 
ENDROOT
BRANCH   1   2
ATOM      2  O   UNL     1      -3.930   6.869  24.610  0.00  0.00    -0.388 OA
ATOM      3  H   UNL     1      -3.328   7.616  24.651  0.00  0.00    +0.210 HD
ENDBRANCH   1   2
BRANCH   1   4
ATOM      4  C   UNL     1      -5.170   6.242  22.621  0.00  0.00    +0.141 C 
BRANCH   4   7
ATOM      5  C   UNL     1      -6.994   6.615  20.995  0.00  0.00    +0.401 C 
ATOM      6  O   UNL     1      -7.757   5.802  21.522  0.00  0.00    -0.226 OA
ATOM      7  N   UNL     1      -5.764   6.879  21.439  0.00  0.00    -0.279 N 
ATOM      8  H   UNL     1      -5.210   7.556  20.933  0.00  0.00    +0.152 HD
BRANCH   5   9
ATOM      9  O   UNL     1      -7.431   7.327  19.835  0.00  0.00    -0.444 OA
BRANCH   9  10
ATOM     10  C   UNL     1      -7.036   8.698  19.938  0.00  0.00    +0.292 C 
BRANCH  10  12
ATOM     11  N   UNL     1      -5.111   8.147  18.482  0.00  0.00    -0.131 NA
ATOM     12  C   UNL     1      -6.070   9.035  18.876  0.00  0.00    +0.121 A 
ATOM     13  C   UNL     1      -5.950  10.184  18.130  0.00  0.00    +0.143 A 
ATOM     14  N   UNL     1      -4.913   9.938  17.261  0.00  0.00    -0.220 N 
ATOM     15  N   UNL     1      -4.407   8.705  17.507  0.00  0.00    -0.060 NA
BRANCH  14  16
ATOM     16  C   UNL     1      -4.412  10.763  16.217  0.00  0.00    +0.067 A 
ATOM     17  C   UNL     1      -3.924  10.196  15.030  0.00  0.00    +0.034 A 
ATOM     18  C   UNL     1      -3.377  11.014  14.036  0.00  0.00    +0.086 A 
ATOM     19  C   UNL     1      -3.321  12.400  14.226  0.00  0.00    +0.273 A 
ATOM     20  C   UNL     1      -3.830  12.977  15.395  0.00  0.00    +0.086 A 
ATOM     21  C   UNL     1      -4.377  12.156  16.388  0.00  0.00    +0.034 A 
BRANCH  19  22
ATOM     22  N   UNL     1      -2.706  13.248  13.197  0.00  0.00    +0.080 N 
ATOM     23  O   UNL     1      -3.231  14.348  12.969  0.00  0.00    +0.041 OA
ATOM     24  O   UNL     1      -1.705  12.812  12.613  0.00  0.00    -0.576 OA
ENDBRANCH  19  22
ENDBRANCH  14  16
ENDBRANCH  10  12
ENDBRANCH   9  10
ENDBRANCH   5   9
ENDBRANCH   4   7
ENDBRANCH   1   4
BRANCH   1  25
ATOM     25  C   UNL     1      -4.946   8.650  23.265  0.00  0.00    +0.175 C 
BRANCH  25  26
ATOM     26  C   UNL     1      -3.934   9.480  24.067  0.00  0.00    +0.176 C 
ATOM     27  O   UNL     1      -4.321   9.425  25.468  0.00  0.00    -0.332 OA
ATOM     28  C   UNL     1      -3.404  10.080  26.406  0.00  0.00    +0.277 C 
ATOM     29  C   UNL     1      -3.161  11.551  25.987  0.00  0.00    +0.110 C 
ATOM     30  C   UNL     1      -2.777  11.663  24.497  0.00  0.00    +0.143 C 
ATOM     31  C   UNL     1      -3.797  10.945  23.612  0.00  0.00    +0.133 C 
BRANCH  31  32
ATOM     32  N   UNL     1      -3.376  10.984  22.203  0.00  0.00    -0.308 N 
ATOM     33  H   UNL     1      -2.528  10.496  21.951  0.00  0.00    +0.149 HD
ATOM     34  C   UNL     1      -4.040  11.623  21.236  0.00  0.00    +0.210 C 
ATOM     35  C   UNL     1      -5.314  12.379  21.657  0.00  0.00    +0.109 C 
ATOM     36  O   UNL     1      -3.671  11.626  20.061  0.00  0.00    -0.276 OA
ENDBRANCH  31  32
BRANCH  28  37
ATOM     37  C   UNL     1      -2.056   9.331  26.464  0.00  0.00    +0.414 C 
ATOM     38  O   UNL     1      -0.999   9.960  26.506  0.00  0.00    -0.240 OA
ATOM     39  O   UNL     1      -2.025   8.100  26.470  0.00  0.00    -0.240 OA
ENDBRANCH  28  37
BRANCH  30  40
ATOM     40  O   UNL     1      -2.712  13.039  24.118  0.00  0.00    -0.390 OA
ATOM     41  H   UNL     1      -2.007  13.162  23.478  0.00  0.00    +0.210 HD
ENDBRANCH  30  40
BRANCH  28  42
ATOM     42  O   UNL     1      -4.023  10.074  27.718  0.00  0.00    -0.343 OA
ATOM     43  C   UNL     1      -4.004  11.348  28.410  0.00  0.00    +0.198 C 
ENDBRANCH  28  42
ENDBRANCH  25  26
BRANCH  25  44
ATOM     44  O   UNL     1      -6.237   9.290  23.279  0.00  0.00    -0.387 OA
ATOM     45  H   UNL     1      -6.420   9.622  24.161  0.00  0.00    +0.210 HD
ENDBRANCH  25  44
ENDBRANCH   1  25
TORSDOF 15
