REMARK VINA RESULT:    -5.189      2.987      5.760
REMARK INTER + INTRA:         -11.970
REMARK INTER:                  -8.789
REMARK INTRA:                  -3.181
REMARK UNBOUND:                -2.989
REMARK  Name = lig_assembled_51.pdb
REMARK  16 active torsions:
REMARK  status: ('A' for Active; 'I' for Inactive)
REMARK    1  A    between atoms: _2  and  _9
REMARK    2  A    between atoms: _4  and  _22
REMARK    3  A    between atoms: _6  and  _7
REMARK    4  A    between atoms: _6  and  _22
REMARK    5  A    between atoms: _18  and  _38
REMARK    6  A    between atoms: _20  and  _26
REMARK    7  A    between atoms: _21  and  _25
REMARK    8  A    between atoms: _25  and  _26
REMARK    9  A    between atoms: _28  and  _29
REMARK   10  A    between atoms: _30  and  _31
REMARK   11  A    between atoms: _32  and  _34
REMARK   12  A    between atoms: _34  and  _35
REMARK   13  A    between atoms: _34  and  _36
REMARK   14  A    between atoms: _36  and  _37
REMARK   15  A    between atoms: _36  and  _38
REMARK   16  A    between atoms: _39  and  _41
REMARK                            x       y       z     vdW  Elec       q    Type
REMARK                         _______ _______ _______ _____ _____    ______ ____
ROOT
ATOM      1  C   UNL     1      -6.828   8.990  23.406  0.00  0.00    +0.163 C 
ENDROOT
BRANCH   1   2
ATOM      2  O   UNL     1      -6.454   8.792  24.779  0.00  0.00    -0.388 OA
ATOM      3  H   UNL     1      -7.207   8.975  25.346  0.00  0.00    +0.210 HD
ENDBRANCH   1   2
BRANCH   1   4
ATOM      4  C   UNL     1      -5.982   8.100  22.501  0.00  0.00    +0.141 C 
BRANCH   4   7
ATOM      5  C   UNL     1      -4.044   6.586  22.742  0.00  0.00    +0.401 C 
ATOM      6  O   UNL     1      -4.290   5.955  21.711  0.00  0.00    -0.226 OA
ATOM      7  N   UNL     1      -4.785   7.600  23.189  0.00  0.00    -0.279 N 
ATOM      8  H   UNL     1      -4.508   8.050  24.051  0.00  0.00    +0.152 HD
BRANCH   5   9
ATOM      9  O   UNL     1      -2.902   6.224  23.522  0.00  0.00    -0.444 OA
BRANCH   9  10
ATOM     10  C   UNL     1      -3.326   5.504  24.683  0.00  0.00    +0.292 C 
BRANCH  10  12
ATOM     11  N   UNL     1      -1.769   6.683  26.204  0.00  0.00    -0.131 NA
ATOM     12  C   UNL     1      -3.041   6.283  25.903  0.00  0.00    +0.120 A 
ATOM     13  C   UNL     1      -3.895   6.723  26.888  0.00  0.00    +0.137 A 
ATOM     14  N   UNL     1      -3.084   7.382  27.769  0.00  0.00    -0.245 N 
ATOM     15  N   UNL     1      -1.806   7.354  27.347  0.00  0.00    -0.065 NA
BRANCH  14  16
ATOM     16  C   UNL     1      -3.468   8.043  29.019  0.00  0.00    +0.066 C 
ATOM     17  C   UNL     1      -3.011   9.528  29.000  0.00  0.00    +0.034 C 
ATOM     18  C   UNL     1      -3.446  10.253  30.285  0.00  0.00    -0.008 C 
ATOM     19  C   UNL     1      -4.978  10.189  30.408  0.00  0.00    +0.007 C 
ATOM     20  C   UNL     1      -5.442   8.725  30.475  0.00  0.00    -0.008 C 
ATOM     21  C   UNL     1      -4.794   8.040  31.688  0.00  0.00    +0.007 C 
ATOM     22  C   UNL     1      -3.264   8.093  31.564  0.00  0.00    -0.008 C 
ATOM     23  C   UNL     1      -2.809   9.560  31.499  0.00  0.00    +0.007 C 
ATOM     24  C   UNL     1      -5.012   7.997  29.191  0.00  0.00    +0.034 C 
ATOM     25  C   UNL     1      -2.834   7.371  30.275  0.00  0.00    +0.034 C 
ENDBRANCH  14  16
ENDBRANCH  10  12
ENDBRANCH   9  10
ENDBRANCH   5   9
ENDBRANCH   4   7
ENDBRANCH   1   4
BRANCH   1  26
ATOM     26  C   UNL     1      -6.649  10.461  22.993  0.00  0.00    +0.175 C 
BRANCH  26  27
ATOM     27  C   UNL     1      -5.266  11.005  23.377  0.00  0.00    +0.176 C 
ATOM     28  O   UNL     1      -5.266  11.255  24.810  0.00  0.00    -0.332 OA
ATOM     29  C   UNL     1      -3.984  11.682  25.379  0.00  0.00    +0.277 C 
ATOM     30  C   UNL     1      -3.447  12.927  24.630  0.00  0.00    +0.110 C 
ATOM     31  C   UNL     1      -3.458  12.720  23.101  0.00  0.00    +0.143 C 
ATOM     32  C   UNL     1      -4.838  12.274  22.617  0.00  0.00    +0.133 C 
BRANCH  32  33
ATOM     33  N   UNL     1      -4.813  11.996  21.172  0.00  0.00    -0.308 N 
ATOM     34  H   UNL     1      -4.106  11.364  20.826  0.00  0.00    +0.149 HD
ATOM     35  C   UNL     1      -5.664  12.526  20.289  0.00  0.00    +0.210 C 
ATOM     36  C   UNL     1      -6.714  13.506  20.845  0.00  0.00    +0.109 C 
ATOM     37  O   UNL     1      -5.629  12.263  19.086  0.00  0.00    -0.276 OA
ENDBRANCH  32  33
BRANCH  29  38
ATOM     38  C   UNL     1      -2.944  10.545  25.299  0.00  0.00    +0.414 C 
ATOM     39  O   UNL     1      -3.276   9.428  24.903  0.00  0.00    -0.240 OA
ATOM     40  O   UNL     1      -1.775  10.743  25.632  0.00  0.00    -0.240 OA
ENDBRANCH  29  38
BRANCH  31  41
ATOM     41  O   UNL     1      -3.101  13.938  22.447  0.00  0.00    -0.390 OA
ATOM     42  H   UNL     1      -2.163  14.104  22.568  0.00  0.00    +0.210 HD
ENDBRANCH  31  41
BRANCH  29  43
ATOM     43  O   UNL     1      -4.207  12.044  26.766  0.00  0.00    -0.343 OA
ATOM     44  C   UNL     1      -5.515  11.699  27.286  0.00  0.00    +0.198 C 
ENDBRANCH  29  43
ENDBRANCH  26  27
BRANCH  26  45
ATOM     45  O   UNL     1      -7.684  11.272  23.585  0.00  0.00    -0.387 OA
ATOM     46  H   UNL     1      -8.531  11.045  23.195  0.00  0.00    +0.210 HD
ENDBRANCH  26  45
ENDBRANCH   1  26
TORSDOF 14
