REMARK VINA RESULT:    -5.248      6.667     11.234
REMARK INTER + INTRA:         -12.563
REMARK INTER:                  -8.957
REMARK INTRA:                  -3.606
REMARK UNBOUND:                -2.560
REMARK  Name = lig_assembled_18.pdb
REMARK  19 active torsions:
REMARK  status: ('A' for Active; 'I' for Inactive)
REMARK    1  A    between atoms: _2  and  _10
REMARK    2  A    between atoms: _3  and  _12
REMARK    3  A    between atoms: _5  and  _21
REMARK    4  A    between atoms: _7  and  _8
REMARK    5  A    between atoms: _7  and  _21
REMARK    6  A    between atoms: _10  and  _11
REMARK    7  A    between atoms: _12  and  _13
REMARK    8  A    between atoms: _17  and  _37
REMARK    9  A    between atoms: _19  and  _25
REMARK   10  A    between atoms: _20  and  _24
REMARK   11  A    between atoms: _24  and  _25
REMARK   12  A    between atoms: _27  and  _28
REMARK   13  A    between atoms: _29  and  _30
REMARK   14  A    between atoms: _31  and  _33
REMARK   15  A    between atoms: _33  and  _34
REMARK   16  A    between atoms: _33  and  _35
REMARK   17  A    between atoms: _35  and  _36
REMARK   18  A    between atoms: _35  and  _37
REMARK   19  A    between atoms: _38  and  _40
REMARK                            x       y       z     vdW  Elec       q    Type
REMARK                         _______ _______ _______ _____ _____    ______ ____
ROOT
ATOM      1  C   UNL     1      -2.942  13.180  13.169  0.00  0.00    +0.163 C 
ENDROOT
BRANCH   1   2
ATOM      2  O   UNL     1      -2.941  12.597  14.483  0.00  0.00    -0.388 OA
ATOM      3  H   UNL     1      -3.047  11.646  14.412  0.00  0.00    +0.210 HD
ENDBRANCH   1   2
BRANCH   1   4
ATOM      4  C   UNL     1      -2.619  12.123  12.099  0.00  0.00    +0.175 C 
BRANCH   4   5
ATOM      5  C   UNL     1      -3.010  10.707  12.548  0.00  0.00    +0.176 C 
ATOM      6  O   UNL     1      -1.943  10.195  13.393  0.00  0.00    -0.332 OA
ATOM      7  C   UNL     1      -2.192   8.886  14.004  0.00  0.00    +0.277 C 
ATOM      8  C   UNL     1      -2.547   7.841  12.919  0.00  0.00    +0.110 C 
ATOM      9  C   UNL     1      -3.656   8.353  11.976  0.00  0.00    +0.143 C 
ATOM     10  C   UNL     1      -3.296   9.723  11.399  0.00  0.00    +0.133 C 
BRANCH  10  11
ATOM     11  N   UNL     1      -4.397  10.239  10.571  0.00  0.00    -0.308 N 
ATOM     12  H   UNL     1      -5.294  10.380  11.014  0.00  0.00    +0.149 HD
ATOM     13  C   UNL     1      -4.289  10.534   9.273  0.00  0.00    +0.210 C 
ATOM     14  C   UNL     1      -2.916  10.283   8.621  0.00  0.00    +0.109 C 
ATOM     15  O   UNL     1      -5.225  10.979   8.608  0.00  0.00    -0.276 OA
ENDBRANCH  10  11
BRANCH   7  16
ATOM     16  C   UNL     1      -3.339   8.972  15.033  0.00  0.00    +0.414 C 
ATOM     17  O   UNL     1      -3.384   9.904  15.835  0.00  0.00    -0.240 OA
ATOM     18  O   UNL     1      -4.217   8.110  15.061  0.00  0.00    -0.240 OA
ENDBRANCH   7  16
BRANCH   7  19
ATOM     19  O   UNL     1      -0.973   8.462  14.667  0.00  0.00    -0.343 OA
ATOM     20  C   UNL     1      -1.044   7.163  15.308  0.00  0.00    +0.198 C 
ENDBRANCH   7  19
BRANCH   9  21
ATOM     21  O   UNL     1      -3.845   7.426  10.906  0.00  0.00    -0.390 OA
ATOM     22  H   UNL     1      -4.704   7.007  10.993  0.00  0.00    +0.210 HD
ENDBRANCH   9  21
ENDBRANCH   4   5
BRANCH   4  23
ATOM     23  O   UNL     1      -1.218  12.168  11.763  0.00  0.00    -0.387 OA
ATOM     24  H   UNL     1      -0.849  13.009  12.042  0.00  0.00    +0.210 HD
ENDBRANCH   4  23
ENDBRANCH   1   4
BRANCH   1  25
ATOM     25  C   UNL     1      -4.302  13.803  12.876  0.00  0.00    +0.141 C 
BRANCH  25  28
ATOM     26  C   UNL     1      -6.267  12.328  13.137  0.00  0.00    +0.401 C 
ATOM     27  O   UNL     1      -6.296  11.999  11.949  0.00  0.00    -0.226 OA
ATOM     28  N   UNL     1      -5.374  13.171  13.656  0.00  0.00    -0.279 N 
ATOM     29  H   UNL     1      -5.437  13.387  14.641  0.00  0.00    +0.152 HD
BRANCH  26  30
ATOM     30  O   UNL     1      -7.244  11.788  14.031  0.00  0.00    -0.444 OA
BRANCH  30  31
ATOM     31  C   UNL     1      -6.700  10.649  14.703  0.00  0.00    +0.292 C 
BRANCH  31  33
ATOM     32  N   UNL     1      -6.007  12.083  16.603  0.00  0.00    -0.131 NA
ATOM     33  C   UNL     1      -6.568  10.919  16.147  0.00  0.00    +0.120 A 
ATOM     34  C   UNL     1      -6.938  10.148  17.224  0.00  0.00    +0.137 A 
ATOM     35  N   UNL     1      -6.604  10.907  18.307  0.00  0.00    -0.242 N 
ATOM     36  N   UNL     1      -6.023  12.061  17.929  0.00  0.00    -0.065 NA
BRANCH  35  37
ATOM     37  C   UNL     1      -6.688  10.567  19.707  0.00  0.00    +0.240 C 
BRANCH  37  38
ATOM     38  C   UNL     1      -5.325  10.448  20.351  0.00  0.00    +0.235 C 
ATOM     39  O   UNL     1      -4.763   9.365  20.497  0.00  0.00    -0.274 OA
ATOM     40  N   UNL     1      -4.738  11.646  20.706  0.00  0.00    -0.309 N 
ATOM     41  H   UNL     1      -5.285  12.494  20.727  0.00  0.00    +0.149 HD
BRANCH  40  42
ATOM     42  C   UNL     1      -3.426  11.691  21.318  0.00  0.00    +0.146 C 
BRANCH  42  43
ATOM     43  C   UNL     1      -3.550  12.135  22.740  0.00  0.00    +0.007 A 
ATOM     44  S   UNL     1      -4.724  13.298  23.194  0.00  0.00    -0.100 S 
ATOM     45  C   UNL     1      -4.196  13.291  24.820  0.00  0.00    +0.045 A 
ATOM     46  C   UNL     1      -3.157  12.411  25.024  0.00  0.00    +0.008 A 
ATOM     47  C   UNL     1      -2.790  11.737  23.824  0.00  0.00    +0.013 A 
ENDBRANCH  42  43
ENDBRANCH  40  42
ENDBRANCH  37  38
ENDBRANCH  35  37
ENDBRANCH  31  33
ENDBRANCH  30  31
ENDBRANCH  26  30
ENDBRANCH  25  28
ENDBRANCH   1  25
TORSDOF 17
