REMARK VINA RESULT:    -4.279      8.834     12.019
REMARK INTER + INTRA:         -10.473
REMARK INTER:                  -8.201
REMARK INTRA:                  -2.272
REMARK UNBOUND:                -3.067
REMARK  Name = lig_assembled_8.pdb
REMARK  16 active torsions:
REMARK  status: ('A' for Active; 'I' for Inactive)
REMARK    1  A    between atoms: _2  and  _9
REMARK    2  A    between atoms: _4  and  _18
REMARK    3  A    between atoms: _6  and  _7
REMARK    4  A    between atoms: _6  and  _18
REMARK    5  A    between atoms: _14  and  _34
REMARK    6  A    between atoms: _16  and  _22
REMARK    7  A    between atoms: _17  and  _21
REMARK    8  A    between atoms: _21  and  _22
REMARK    9  A    between atoms: _24  and  _25
REMARK   10  A    between atoms: _26  and  _27
REMARK   11  A    between atoms: _28  and  _30
REMARK   12  A    between atoms: _30  and  _31
REMARK   13  A    between atoms: _30  and  _32
REMARK   14  A    between atoms: _32  and  _33
REMARK   15  A    between atoms: _32  and  _34
REMARK   16  A    between atoms: _35  and  _37
REMARK                            x       y       z     vdW  Elec       q    Type
REMARK                         _______ _______ _______ _____ _____    ______ ____
ROOT
ATOM      1  C   UNL     1      -2.925  10.791  14.147  0.00  0.00    +0.163 C 
ENDROOT
BRANCH   1   2
ATOM      2  O   UNL     1      -2.087  10.475  13.024  0.00  0.00    -0.388 OA
ATOM      3  H   UNL     1      -1.260  10.959  13.095  0.00  0.00    +0.210 HD
ENDBRANCH   1   2
BRANCH   1   4
ATOM      4  C   UNL     1      -3.509   9.512  14.738  0.00  0.00    +0.141 C 
BRANCH   4   7
ATOM      5  C   UNL     1      -4.632   8.990  16.876  0.00  0.00    +0.401 C 
ATOM      6  O   UNL     1      -4.035   7.923  17.038  0.00  0.00    -0.226 OA
ATOM      7  N   UNL     1      -4.453   9.793  15.827  0.00  0.00    -0.279 N 
ATOM      8  H   UNL     1      -4.997  10.643  15.778  0.00  0.00    +0.152 HD
BRANCH   5   9
ATOM      9  O   UNL     1      -5.583   9.409  17.858  0.00  0.00    -0.444 OA
BRANCH   9  10
ATOM     10  C   UNL     1      -5.627  10.838  17.901  0.00  0.00    +0.292 C 
BRANCH  10  12
ATOM     11  N   UNL     1      -6.477  11.974  19.920  0.00  0.00    -0.131 NA
ATOM     12  C   UNL     1      -5.472  11.313  19.288  0.00  0.00    +0.121 A 
ATOM     13  C   UNL     1      -4.406  11.197  20.149  0.00  0.00    +0.143 A 
ATOM     14  N   UNL     1      -4.816  11.794  21.329  0.00  0.00    -0.219 N 
ATOM     15  N   UNL     1      -6.070  12.265  21.147  0.00  0.00    -0.060 NA
BRANCH  14  16
ATOM     16  C   UNL     1      -4.094  11.907  22.558  0.00  0.00    +0.081 A 
ATOM     17  C   UNL     1      -3.835  10.725  23.287  0.00  0.00    +0.029 A 
ATOM     18  C   UNL     1      -3.156  10.751  24.508  0.00  0.00    +0.002 A 
ATOM     19  C   UNL     1      -2.716  11.958  25.030  0.00  0.00    +0.001 A 
ATOM     20  C   UNL     1      -2.952  13.136  24.326  0.00  0.00    +0.017 A 
ATOM     21  C   UNL     1      -3.633  13.126  23.094  0.00  0.00    +0.043 A 
ATOM     22 BR   UNL     1      -3.829  14.857  22.320  0.00  0.00    -0.048 Br
ENDBRANCH  14  16
ENDBRANCH  10  12
ENDBRANCH   9  10
ENDBRANCH   5   9
ENDBRANCH   4   7
ENDBRANCH   1   4
BRANCH   1  23
ATOM     23  C   UNL     1      -4.067  11.735  13.734  0.00  0.00    +0.175 C 
BRANCH  23  24
ATOM     24  C   UNL     1      -3.632  12.727  12.645  0.00  0.00    +0.176 C 
ATOM     25  O   UNL     1      -2.335  13.266  13.023  0.00  0.00    -0.332 OA
ATOM     26  C   UNL     1      -1.709  14.158  12.043  0.00  0.00    +0.277 C 
ATOM     27  C   UNL     1      -2.669  15.315  11.674  0.00  0.00    +0.110 C 
ATOM     28  C   UNL     1      -4.071  14.792  11.294  0.00  0.00    +0.143 C 
ATOM     29  C   UNL     1      -4.626  13.872  12.382  0.00  0.00    +0.133 C 
BRANCH  29  30
ATOM     30  N   UNL     1      -5.924  13.313  11.971  0.00  0.00    -0.308 N 
ATOM     31  H   UNL     1      -5.937  12.685  11.179  0.00  0.00    +0.149 HD
ATOM     32  C   UNL     1      -7.084  13.580  12.575  0.00  0.00    +0.210 C 
ATOM     33  C   UNL     1      -7.035  14.560  13.762  0.00  0.00    +0.109 C 
ATOM     34  O   UNL     1      -8.154  13.084  12.218  0.00  0.00    -0.276 OA
ENDBRANCH  29  30
BRANCH  26  35
ATOM     35  C   UNL     1      -1.321  13.382  10.767  0.00  0.00    +0.414 C 
ATOM     36  O   UNL     1      -1.062  12.181  10.826  0.00  0.00    -0.240 OA
ATOM     37  O   UNL     1      -1.268  13.957   9.679  0.00  0.00    -0.240 OA
ENDBRANCH  26  35
BRANCH  28  38
ATOM     38  O   UNL     1      -4.962  15.894  11.109  0.00  0.00    -0.390 OA
ATOM     39  H   UNL     1      -4.678  16.631  11.655  0.00  0.00    +0.210 HD
ENDBRANCH  28  38
BRANCH  26  40
ATOM     40  O   UNL     1      -0.520  14.726  12.649  0.00  0.00    -0.343 OA
ATOM     41  C   UNL     1      -0.313  16.137  12.386  0.00  0.00    +0.198 C 
ENDBRANCH  26  40
ENDBRANCH  23  24
BRANCH  23  42
ATOM     42  O   UNL     1      -4.564  12.447  14.885  0.00  0.00    -0.387 OA
ATOM     43  H   UNL     1      -4.062  13.258  15.001  0.00  0.00    +0.210 HD
ENDBRANCH  23  42
ENDBRANCH   1  23
TORSDOF 14
