REMARK VINA RESULT:    -4.904      5.418     10.367
REMARK INTER + INTRA:         -11.476
REMARK INTER:                  -8.467
REMARK INTRA:                  -3.009
REMARK UNBOUND:                -2.989
REMARK  Name = lig_assembled_51.pdb
REMARK  16 active torsions:
REMARK  status: ('A' for Active; 'I' for Inactive)
REMARK    1  A    between atoms: _2  and  _9
REMARK    2  A    between atoms: _4  and  _22
REMARK    3  A    between atoms: _6  and  _7
REMARK    4  A    between atoms: _6  and  _22
REMARK    5  A    between atoms: _18  and  _38
REMARK    6  A    between atoms: _20  and  _26
REMARK    7  A    between atoms: _21  and  _25
REMARK    8  A    between atoms: _25  and  _26
REMARK    9  A    between atoms: _28  and  _29
REMARK   10  A    between atoms: _30  and  _31
REMARK   11  A    between atoms: _32  and  _34
REMARK   12  A    between atoms: _34  and  _35
REMARK   13  A    between atoms: _34  and  _36
REMARK   14  A    between atoms: _36  and  _37
REMARK   15  A    between atoms: _36  and  _38
REMARK   16  A    between atoms: _39  and  _41
REMARK                            x       y       z     vdW  Elec       q    Type
REMARK                         _______ _______ _______ _____ _____    ______ ____
ROOT
ATOM      1  C   UNL     1      -5.326   7.369  24.205  0.00  0.00    +0.163 C 
ENDROOT
BRANCH   1   2
ATOM      2  O   UNL     1      -4.146   6.916  24.889  0.00  0.00    -0.388 OA
ATOM      3  H   UNL     1      -3.426   7.529  24.726  0.00  0.00    +0.210 HD
ENDBRANCH   1   2
BRANCH   1   4
ATOM      4  C   UNL     1      -5.738   6.353  23.145  0.00  0.00    +0.141 C 
BRANCH   4   7
ATOM      5  C   UNL     1      -7.270   6.814  21.262  0.00  0.00    +0.401 C 
ATOM      6  O   UNL     1      -8.161   6.071  21.682  0.00  0.00    -0.226 OA
ATOM      7  N   UNL     1      -6.102   7.000  21.879  0.00  0.00    -0.279 N 
ATOM      8  H   UNL     1      -5.431   7.622  21.451  0.00  0.00    +0.152 HD
BRANCH   5   9
ATOM      9  O   UNL     1      -7.478   7.524  20.039  0.00  0.00    -0.444 OA
BRANCH   9  10
ATOM     10  C   UNL     1      -6.978   8.858  20.170  0.00  0.00    +0.292 C 
BRANCH  10  12
ATOM     11  N   UNL     1      -5.050   8.524  18.654  0.00  0.00    -0.131 NA
ATOM     12  C   UNL     1      -6.175   9.225  18.989  0.00  0.00    +0.120 A 
ATOM     13  C   UNL     1      -6.363  10.236  18.074  0.00  0.00    +0.137 A 
ATOM     14  N   UNL     1      -5.314  10.105  17.206  0.00  0.00    -0.245 N 
ATOM     15  N   UNL     1      -4.532   9.070  17.563  0.00  0.00    -0.065 NA
BRANCH  14  16
ATOM     16  C   UNL     1      -5.009  10.935  16.038  0.00  0.00    +0.066 C 
ATOM     17  C   UNL     1      -4.027  10.187  15.095  0.00  0.00    +0.034 C 
ATOM     18  C   UNL     1      -3.730  11.023  13.838  0.00  0.00    -0.008 C 
ATOM     19  C   UNL     1      -5.045  11.300  13.092  0.00  0.00    +0.007 C 
ATOM     20  C   UNL     1      -6.012  12.080  13.996  0.00  0.00    -0.008 C 
ATOM     21  C   UNL     1      -5.361  13.408  14.412  0.00  0.00    +0.007 C 
ATOM     22  C   UNL     1      -4.051  13.135  15.167  0.00  0.00    -0.008 C 
ATOM     23  C   UNL     1      -3.091  12.356  14.254  0.00  0.00    +0.007 C 
ATOM     24  C   UNL     1      -6.314  11.247  15.253  0.00  0.00    +0.034 C 
ATOM     25  C   UNL     1      -4.352  12.296  16.421  0.00  0.00    +0.034 C 
ENDBRANCH  14  16
ENDBRANCH  10  12
ENDBRANCH   9  10
ENDBRANCH   5   9
ENDBRANCH   4   7
ENDBRANCH   1   4
BRANCH   1  26
ATOM     26  C   UNL     1      -5.086   8.736  23.541  0.00  0.00    +0.175 C 
BRANCH  26  27
ATOM     27  C   UNL     1      -3.979   9.534  24.246  0.00  0.00    +0.176 C 
ATOM     28  O   UNL     1      -4.286   9.565  25.667  0.00  0.00    -0.332 OA
ATOM     29  C   UNL     1      -3.277  10.200  26.520  0.00  0.00    +0.277 C 
ATOM     30  C   UNL     1      -2.969  11.633  26.019  0.00  0.00    +0.110 C 
ATOM     31  C   UNL     1      -2.667  11.655  24.506  0.00  0.00    +0.143 C 
ATOM     32  C   UNL     1      -3.780  10.966  23.715  0.00  0.00    +0.133 C 
BRANCH  32  33
ATOM     33  N   UNL     1      -3.440  10.917  22.284  0.00  0.00    -0.308 N 
ATOM     34  H   UNL     1      -2.634  10.373  22.009  0.00  0.00    +0.149 HD
ATOM     35  C   UNL     1      -4.126  11.545  21.325  0.00  0.00    +0.210 C 
ATOM     36  C   UNL     1      -5.333  12.387  21.780  0.00  0.00    +0.109 C 
ATOM     37  O   UNL     1      -3.827  11.474  20.133  0.00  0.00    -0.276 OA
ENDBRANCH  32  33
BRANCH  29  38
ATOM     38  C   UNL     1      -1.976   9.370  26.538  0.00  0.00    +0.414 C 
ATOM     39  O   UNL     1      -2.024   8.141  26.495  0.00  0.00    -0.240 OA
ATOM     40  O   UNL     1      -0.880   9.928  26.596  0.00  0.00    -0.240 OA
ENDBRANCH  29  38
BRANCH  31  41
ATOM     41  O   UNL     1      -2.540  13.006  24.060  0.00  0.00    -0.390 OA
ATOM     42  H   UNL     1      -3.091  13.141  23.286  0.00  0.00    +0.210 HD
ENDBRANCH  31  41
BRANCH  29  43
ATOM     43  O   UNL     1      -3.817  10.291  27.863  0.00  0.00    -0.343 OA
ATOM     44  C   UNL     1      -4.954   9.429  28.125  0.00  0.00    +0.198 C 
ENDBRANCH  29  43
ENDBRANCH  26  27
BRANCH  26  45
ATOM     45  O   UNL     1      -6.309   9.498  23.516  0.00  0.00    -0.387 OA
ATOM     46  H   UNL     1      -6.373   9.974  22.684  0.00  0.00    +0.210 HD
ENDBRANCH  26  45
ENDBRANCH   1  26
TORSDOF 14
