REMARK VINA RESULT:    -5.070      6.428     12.532
REMARK INTER + INTRA:         -13.262
REMARK INTER:                 -10.899
REMARK INTRA:                  -2.362
REMARK UNBOUND:                -3.302
REMARK  Name = lig_assembled_84.pdb
REMARK  21 active torsions:
REMARK  status: ('A' for Active; 'I' for Inactive)
REMARK    1  A    between atoms: _2  and  _11
REMARK    2  A    between atoms: _3  and  _14
REMARK    3  A    between atoms: _4  and  _17
REMARK    4  A    between atoms: _6  and  _28
REMARK    5  A    between atoms: _8  and  _9
REMARK    6  A    between atoms: _8  and  _28
REMARK    7  A    between atoms: _11  and  _12
REMARK    8  A    between atoms: _12  and  _13
REMARK    9  A    between atoms: _12  and  _14
REMARK   10  A    between atoms: _24  and  _44
REMARK   11  A    between atoms: _26  and  _32
REMARK   12  A    between atoms: _27  and  _31
REMARK   13  A    between atoms: _31  and  _32
REMARK   14  A    between atoms: _34  and  _35
REMARK   15  A    between atoms: _36  and  _37
REMARK   16  A    between atoms: _38  and  _40
REMARK   17  A    between atoms: _40  and  _41
REMARK   18  A    between atoms: _40  and  _42
REMARK   19  A    between atoms: _42  and  _43
REMARK   20  A    between atoms: _42  and  _44
REMARK   21  A    between atoms: _45  and  _47
REMARK                            x       y       z     vdW  Elec       q    Type
REMARK                         _______ _______ _______ _____ _____    ______ ____
ROOT
ATOM      1  C   UNL     1      -6.087  12.277  20.533  0.00  0.00    +0.401 C 
ATOM      2  O   UNL     1      -6.918  12.620  21.376  0.00  0.00    -0.226 OA
ATOM      3  N   UNL     1      -4.771  12.255  20.748  0.00  0.00    -0.279 N 
ATOM      4  H   UNL     1      -4.170  11.949  19.996  0.00  0.00    +0.152 HD
ENDROOT
BRANCH   1   5
ATOM      5  O   UNL     1      -6.539  11.868  19.239  0.00  0.00    -0.444 OA
BRANCH   5   6
ATOM      6  C   UNL     1      -5.423  11.781  18.348  0.00  0.00    +0.292 C 
BRANCH   6   8
ATOM      7  N   UNL     1      -5.079   9.381  18.864  0.00  0.00    -0.131 NA
ATOM      8  C   UNL     1      -5.190  10.384  17.936  0.00  0.00    +0.120 A 
ATOM      9  C   UNL     1      -5.015   9.854  16.678  0.00  0.00    +0.137 A 
ATOM     10  N   UNL     1      -4.735   8.541  16.911  0.00  0.00    -0.251 N 
ATOM     11  N   UNL     1      -4.797   8.254  18.223  0.00  0.00    -0.065 NA
BRANCH  10  12
ATOM     12  C   UNL     1      -4.272   7.550  15.959  0.00  0.00    +0.149 C 
BRANCH  12  13
ATOM     13  C   UNL     1      -3.151   8.042  15.027  0.00  0.00    +0.021 C 
ATOM     14  C   UNL     1      -1.968   7.063  15.013  0.00  0.00    +0.010 C 
BRANCH  13  15
ATOM     15  C   UNL     1      -3.665   8.224  13.578  0.00  0.00    +0.089 C 
BRANCH  15  16
ATOM     16  N   UNL     1      -3.687   9.606  13.080  0.00  0.00    -0.299 NA
ATOM     17  C   UNL     1      -3.040   9.676  11.744  0.00  0.00    +0.103 C 
ATOM     18  C   UNL     1      -3.117  11.095  11.144  0.00  0.00    +0.120 C 
ATOM     19  N   UNL     1      -2.477  12.051  12.055  0.00  0.00    -0.327 N 
ATOM     20  C   UNL     1      -3.004  12.026  13.427  0.00  0.00    +0.120 C 
ATOM     21  C   UNL     1      -2.999  10.570  13.976  0.00  0.00    +0.103 C 
BRANCH  19  22
ATOM     22  C   UNL     1      -1.504  12.932  11.643  0.00  0.00    +0.030 A 
ATOM     23  C   UNL     1      -1.001  13.923  12.506  0.00  0.00    +0.024 A 
ATOM     24  C   UNL     1      -0.030  14.844  12.096  0.00  0.00    +0.022 A 
ATOM     25  C   UNL     1       0.466  14.786  10.804  0.00  0.00    +0.041 A 
ATOM     26 CL   UNL     1       1.655  15.918  10.291  0.00  0.00    -0.084 Cl
ATOM     27  C   UNL     1      -0.003  13.820   9.920  0.00  0.00    +0.022 A 
ATOM     28  C   UNL     1      -0.980  12.908  10.342  0.00  0.00    +0.024 A 
ENDBRANCH  19  22
ENDBRANCH  15  16
ENDBRANCH  13  15
ENDBRANCH  12  13
ENDBRANCH  10  12
ENDBRANCH   6   8
ENDBRANCH   5   6
ENDBRANCH   1   5
BRANCH   3  29
ATOM     29  C   UNL     1      -4.147  12.653  22.016  0.00  0.00    +0.141 C 
BRANCH  29  30
ATOM     30  C   UNL     1      -3.842  11.449  22.901  0.00  0.00    +0.163 C 
BRANCH  30  31
ATOM     31  O   UNL     1      -3.339  10.366  22.102  0.00  0.00    -0.388 OA
ATOM     32  H   UNL     1      -2.906  10.718  21.320  0.00  0.00    +0.210 HD
ENDBRANCH  30  31
BRANCH  30  33
ATOM     33  C   UNL     1      -2.825  11.852  23.984  0.00  0.00    +0.175 C 
BRANCH  33  34
ATOM     34  C   UNL     1      -3.123  11.182  25.333  0.00  0.00    +0.176 C 
ATOM     35  O   UNL     1      -2.787   9.772  25.216  0.00  0.00    -0.332 OA
ATOM     36  C   UNL     1      -2.908   8.987  26.448  0.00  0.00    +0.277 C 
ATOM     37  C   UNL     1      -4.327   9.140  27.050  0.00  0.00    +0.110 C 
ATOM     38  C   UNL     1      -4.740  10.622  27.165  0.00  0.00    +0.143 C 
ATOM     39  C   UNL     1      -4.572  11.343  25.827  0.00  0.00    +0.133 C 
BRANCH  39  40
ATOM     40  N   UNL     1      -4.886  12.774  25.970  0.00  0.00    -0.308 N 
ATOM     41  H   UNL     1      -4.238  13.349  26.490  0.00  0.00    +0.149 HD
ATOM     42  C   UNL     1      -5.972  13.361  25.459  0.00  0.00    +0.210 C 
ATOM     43  C   UNL     1      -6.953  12.452  24.696  0.00  0.00    +0.109 C 
ATOM     44  O   UNL     1      -6.202  14.565  25.583  0.00  0.00    -0.276 OA
ENDBRANCH  39  40
BRANCH  36  45
ATOM     45  C   UNL     1      -1.857   9.433  27.486  0.00  0.00    +0.414 C 
ATOM     46  O   UNL     1      -0.742   9.802  27.120  0.00  0.00    -0.240 OA
ATOM     47  O   UNL     1      -2.124   9.424  28.688  0.00  0.00    -0.240 OA
ENDBRANCH  36  45
BRANCH  36  48
ATOM     48  O   UNL     1      -2.701   7.591  26.113  0.00  0.00    -0.343 OA
ATOM     49  C   UNL     1      -3.893   6.878  25.695  0.00  0.00    +0.198 C 
ENDBRANCH  36  48
BRANCH  38  50
ATOM     50  O   UNL     1      -6.104  10.711  27.580  0.00  0.00    -0.390 OA
ATOM     51  H   UNL     1      -6.601   9.979  27.206  0.00  0.00    +0.210 HD
ENDBRANCH  38  50
ENDBRANCH  33  34
BRANCH  33  52
ATOM     52  O   UNL     1      -2.803  13.285  24.135  0.00  0.00    -0.387 OA
ATOM     53  H   UNL     1      -2.295  13.675  23.419  0.00  0.00    +0.210 HD
ENDBRANCH  33  52
ENDBRANCH  30  33
ENDBRANCH  29  30
ENDBRANCH   3  29
TORSDOF 18
