REMARK VINA RESULT:    -4.981      5.363      9.991
REMARK INTER + INTRA:         -11.947
REMARK INTER:                  -9.055
REMARK INTRA:                  -2.892
REMARK UNBOUND:                -2.890
REMARK  Name = lig_assembled_73.pdb
REMARK  18 active torsions:
REMARK  status: ('A' for Active; 'I' for Inactive)
REMARK    1  A    between atoms: _2  and  _10
REMARK    2  A    between atoms: _3  and  _14
REMARK    3  A    between atoms: _5  and  _22
REMARK    4  A    between atoms: _7  and  _8
REMARK    5  A    between atoms: _7  and  _22
REMARK    6  A    between atoms: _13  and  _16
REMARK    7  A    between atoms: _18  and  _38
REMARK    8  A    between atoms: _20  and  _26
REMARK    9  A    between atoms: _21  and  _25
REMARK   10  A    between atoms: _25  and  _26
REMARK   11  A    between atoms: _28  and  _29
REMARK   12  A    between atoms: _30  and  _31
REMARK   13  A    between atoms: _32  and  _34
REMARK   14  A    between atoms: _34  and  _35
REMARK   15  A    between atoms: _34  and  _36
REMARK   16  A    between atoms: _36  and  _37
REMARK   17  A    between atoms: _36  and  _38
REMARK   18  A    between atoms: _39  and  _41
REMARK                            x       y       z     vdW  Elec       q    Type
REMARK                         _______ _______ _______ _____ _____    ______ ____
ROOT
ATOM      1  C   UNL     1      -6.959  11.165  23.871  0.00  0.00    +0.163 C 
ENDROOT
BRANCH   1   2
ATOM      2  O   UNL     1      -7.531  11.387  25.171  0.00  0.00    -0.388 OA
ATOM      3  H   UNL     1      -7.488  12.322  25.385  0.00  0.00    +0.210 HD
ENDBRANCH   1   2
BRANCH   1   4
ATOM      4  C   UNL     1      -6.066   9.913  23.870  0.00  0.00    +0.175 C 
BRANCH   4   5
ATOM      5  C   UNL     1      -4.696  10.179  24.511  0.00  0.00    +0.176 C 
ATOM      6  O   UNL     1      -4.871  10.185  25.954  0.00  0.00    -0.332 OA
ATOM      7  C   UNL     1      -3.642  10.321  26.742  0.00  0.00    +0.277 C 
ATOM      8  C   UNL     1      -2.857  11.582  26.305  0.00  0.00    +0.110 C 
ATOM      9  C   UNL     1      -2.673  11.636  24.774  0.00  0.00    +0.143 C 
ATOM     10  C   UNL     1      -4.013  11.482  24.055  0.00  0.00    +0.133 C 
BRANCH  10  11
ATOM     11  N   UNL     1      -3.815  11.448  22.597  0.00  0.00    -0.308 N 
ATOM     12  H   UNL     1      -3.431  10.606  22.193  0.00  0.00    +0.149 HD
ATOM     13  C   UNL     1      -4.108  12.458  21.774  0.00  0.00    +0.210 C 
ATOM     14  C   UNL     1      -4.667  13.738  22.424  0.00  0.00    +0.109 C 
ATOM     15  O   UNL     1      -3.945  12.397  20.555  0.00  0.00    -0.276 OA
ENDBRANCH  10  11
BRANCH   7  16
ATOM     16  C   UNL     1      -2.748   9.074  26.580  0.00  0.00    +0.414 C 
ATOM     17  O   UNL     1      -3.243   7.948  26.602  0.00  0.00    -0.240 OA
ATOM     18  O   UNL     1      -1.532   9.194  26.426  0.00  0.00    -0.240 OA
ENDBRANCH   7  16
BRANCH   9  19
ATOM     19  O   UNL     1      -2.081  12.882  24.404  0.00  0.00    -0.390 OA
ATOM     20  H   UNL     1      -1.137  12.853  24.578  0.00  0.00    +0.210 HD
ENDBRANCH   9  19
BRANCH   7  21
ATOM     21  O   UNL     1      -4.017  10.475  28.135  0.00  0.00    -0.343 OA
ATOM     22  C   UNL     1      -5.002  11.507  28.394  0.00  0.00    +0.198 C 
ENDBRANCH   7  21
ENDBRANCH   4   5
BRANCH   4  23
ATOM     23  O   UNL     1      -5.898   9.424  22.524  0.00  0.00    -0.387 OA
ATOM     24  H   UNL     1      -6.719   9.532  22.039  0.00  0.00    +0.210 HD
ENDBRANCH   4  23
ENDBRANCH   1   4
BRANCH   1  25
ATOM     25  C   UNL     1      -8.066  11.003  22.834  0.00  0.00    +0.141 C 
BRANCH  25  28
ATOM     26  C   UNL     1      -7.748  12.510  20.902  0.00  0.00    +0.401 C 
ATOM     27  O   UNL     1      -8.306  13.470  21.439  0.00  0.00    -0.226 OA
ATOM     28  N   UNL     1      -7.597  11.317  21.479  0.00  0.00    -0.279 N 
ATOM     29  H   UNL     1      -7.134  10.589  20.954  0.00  0.00    +0.152 HD
BRANCH  26  30
ATOM     30  O   UNL     1      -7.227  12.661  19.579  0.00  0.00    -0.444 OA
BRANCH  30  31
ATOM     31  C   UNL     1      -7.677  11.576  18.762  0.00  0.00    +0.292 C 
BRANCH  31  33
ATOM     32  N   UNL     1      -5.726  10.066  18.963  0.00  0.00    -0.131 NA
ATOM     33  C   UNL     1      -6.526  10.855  18.188  0.00  0.00    +0.121 A 
ATOM     34  C   UNL     1      -6.065  10.824  16.892  0.00  0.00    +0.143 A 
ATOM     35  N   UNL     1      -4.974   9.987  16.923  0.00  0.00    -0.220 N 
ATOM     36  N   UNL     1      -4.787   9.543  18.188  0.00  0.00    -0.060 NA
BRANCH  35  37
ATOM     37  C   UNL     1      -4.119   9.600  15.858  0.00  0.00    +0.074 A 
ATOM     38  C   UNL     1      -3.452   8.363  15.914  0.00  0.00    +0.032 A 
ATOM     39  C   UNL     1      -2.596   7.964  14.878  0.00  0.00    +0.054 A 
ATOM     40  C   UNL     1      -2.395   8.797  13.779  0.00  0.00    +0.195 A 
ATOM     41  C   UNL     1      -3.060  10.021  13.729  0.00  0.00    +0.316 A 
ATOM     42  C   UNL     1      -3.927  10.435  14.751  0.00  0.00    +0.116 A 
BRANCH  41  43
ATOM     43  N   UNL     1      -2.865  10.915  12.605  0.00  0.00    +0.083 N 
ATOM     44  O   UNL     1      -1.707  11.272  12.351  0.00  0.00    +0.042 OA
ATOM     45  O   UNL     1      -3.888  11.327  12.039  0.00  0.00    -0.576 OA
ENDBRANCH  41  43
BRANCH  40  46
ATOM     46  O   UNL     1      -1.580   8.399  12.764  0.00  0.00    -0.501 OA
ATOM     47  H   UNL     1      -0.676   8.728  12.912  0.00  0.00    +0.292 HD
ENDBRANCH  40  46
ENDBRANCH  35  37
ENDBRANCH  31  33
ENDBRANCH  30  31
ENDBRANCH  26  30
ENDBRANCH  25  28
ENDBRANCH   1  25
TORSDOF 16
