REMARK VINA RESULT:    -5.128      3.376      9.476
REMARK INTER + INTRA:         -11.253
REMARK INTER:                  -9.258
REMARK INTRA:                  -1.996
REMARK UNBOUND:                -1.779
REMARK  Name = lig_assembled_14.pdb
REMARK  18 active torsions:
REMARK  status: ('A' for Active; 'I' for Inactive)
REMARK    1  A    between atoms: _2  and  _10
REMARK    2  A    between atoms: _3  and  _11
REMARK    3  A    between atoms: _5  and  _19
REMARK    4  A    between atoms: _7  and  _8
REMARK    5  A    between atoms: _7  and  _19
REMARK    6  A    between atoms: _10  and  _11
REMARK    7  A    between atoms: _15  and  _35
REMARK    8  A    between atoms: _17  and  _23
REMARK    9  A    between atoms: _18  and  _22
REMARK   10  A    between atoms: _22  and  _23
REMARK   11  A    between atoms: _25  and  _26
REMARK   12  A    between atoms: _27  and  _28
REMARK   13  A    between atoms: _29  and  _31
REMARK   14  A    between atoms: _31  and  _32
REMARK   15  A    between atoms: _31  and  _33
REMARK   16  A    between atoms: _33  and  _34
REMARK   17  A    between atoms: _33  and  _35
REMARK   18  A    between atoms: _36  and  _38
REMARK                            x       y       z     vdW  Elec       q    Type
REMARK                         _______ _______ _______ _____ _____    ______ ____
ROOT
ATOM      1  C   UNL     1      -3.176  11.839  25.097  0.00  0.00    +0.163 C 
ENDROOT
BRANCH   1   2
ATOM      2  O   UNL     1      -2.002  11.014  25.014  0.00  0.00    -0.388 OA
ATOM      3  H   UNL     1      -1.317  11.481  24.530  0.00  0.00    +0.210 HD
ENDBRANCH   1   2
BRANCH   1   4
ATOM      4  C   UNL     1      -3.569  12.090  26.564  0.00  0.00    +0.175 C 
BRANCH   4   5
ATOM      5  C   UNL     1      -3.368  10.843  27.437  0.00  0.00    +0.176 C 
ATOM      6  O   UNL     1      -4.002   9.719  26.766  0.00  0.00    -0.332 OA
ATOM      7  C   UNL     1      -3.821   8.413  27.406  0.00  0.00    +0.277 C 
ATOM      8  C   UNL     1      -4.281   8.467  28.884  0.00  0.00    +0.110 C 
ATOM      9  C   UNL     1      -3.657   9.664  29.631  0.00  0.00    +0.143 C 
ATOM     10  C   UNL     1      -3.903  10.971  28.876  0.00  0.00    +0.133 C 
BRANCH  10  11
ATOM     11  N   UNL     1      -3.230  12.091  29.552  0.00  0.00    -0.308 N 
ATOM     12  H   UNL     1      -2.222  12.072  29.608  0.00  0.00    +0.149 HD
ATOM     13  C   UNL     1      -3.866  13.132  30.097  0.00  0.00    +0.210 C 
ATOM     14  C   UNL     1      -5.404  13.120  30.018  0.00  0.00    +0.109 C 
ATOM     15  O   UNL     1      -3.275  14.064  30.644  0.00  0.00    -0.276 OA
ENDBRANCH  10  11
BRANCH   7  16
ATOM     16  C   UNL     1      -2.344   7.973  27.342  0.00  0.00    +0.414 C 
ATOM     17  O   UNL     1      -1.650   8.270  26.370  0.00  0.00    -0.240 OA
ATOM     18  O   UNL     1      -1.846   7.320  28.260  0.00  0.00    -0.240 OA
ENDBRANCH   7  16
BRANCH   9  19
ATOM     19  O   UNL     1      -4.223   9.763  30.939  0.00  0.00    -0.390 OA
ATOM     20  H   UNL     1      -4.805   9.016  31.094  0.00  0.00    +0.210 HD
ENDBRANCH   9  19
BRANCH   7  21
ATOM     21  O   UNL     1      -4.649   7.450  26.704  0.00  0.00    -0.343 OA
ATOM     22  C   UNL     1      -5.418   7.993  25.601  0.00  0.00    +0.198 C 
ENDBRANCH   7  21
ENDBRANCH   4   5
BRANCH   4  23
ATOM     23  O   UNL     1      -4.938  12.536  26.642  0.00  0.00    -0.387 OA
ATOM     24  H   UNL     1      -5.154  12.749  27.552  0.00  0.00    +0.210 HD
ENDBRANCH   4  23
ENDBRANCH   1   4
BRANCH   1  25
ATOM     25  C   UNL     1      -2.928  13.172  24.401  0.00  0.00    +0.141 C 
BRANCH  25  28
ATOM     26  C   UNL     1      -4.055  13.198  22.203  0.00  0.00    +0.401 C 
ATOM     27  O   UNL     1      -3.162  12.568  21.632  0.00  0.00    -0.226 OA
ATOM     28  N   UNL     1      -4.025  13.529  23.494  0.00  0.00    -0.279 N 
ATOM     29  H   UNL     1      -4.802  14.056  23.869  0.00  0.00    +0.152 HD
BRANCH  26  30
ATOM     30  O   UNL     1      -5.200  13.612  21.453  0.00  0.00    -0.444 OA
BRANCH  30  31
ATOM     31  C   UNL     1      -6.007  12.472  21.145  0.00  0.00    +0.292 C 
BRANCH  31  33
ATOM     32  N   UNL     1      -7.040  12.484  18.896  0.00  0.00    -0.131 NA
ATOM     33  C   UNL     1      -5.969  12.190  19.698  0.00  0.00    +0.120 A 
ATOM     34  C   UNL     1      -4.973  11.626  18.931  0.00  0.00    +0.137 A 
ATOM     35  N   UNL     1      -5.507  11.593  17.679  0.00  0.00    -0.250 N 
ATOM     36  N   UNL     1      -6.745  12.116  17.658  0.00  0.00    -0.065 NA
BRANCH  35  37
ATOM     37  C   UNL     1      -4.930  11.034  16.475  0.00  0.00    +0.160 C 
BRANCH  37  38
ATOM     38  C   UNL     1      -3.849  11.945  15.883  0.00  0.00    +0.107 C 
BRANCH  38  39
ATOM     39  N   UNL     1      -2.969  11.249  14.928  0.00  0.00    -0.301 NA
ATOM     40  C   UNL     1      -3.147   9.794  14.937  0.00  0.00    +0.084 C 
ATOM     41  C   UNL     1      -2.484   9.374  13.642  0.00  0.00    +0.017 C 
ATOM     42  C   UNL     1      -2.855  10.479  12.670  0.00  0.00    +0.017 C 
ATOM     43  C   UNL     1      -3.223  11.675  13.543  0.00  0.00    +0.084 C 
ENDBRANCH  38  39
ENDBRANCH  37  38
ENDBRANCH  35  37
ENDBRANCH  31  33
ENDBRANCH  30  31
ENDBRANCH  26  30
ENDBRANCH  25  28
ENDBRANCH   1  25
TORSDOF 16
