REMARK VINA RESULT:    -4.353      2.870      9.690
REMARK INTER + INTRA:         -11.000
REMARK INTER:                  -7.970
REMARK INTRA:                  -3.031
REMARK UNBOUND:                -3.213
REMARK  Name = lig_assembled_46.pdb
REMARK  17 active torsions:
REMARK  status: ('A' for Active; 'I' for Inactive)
REMARK    1  A    between atoms: _2  and  _9
REMARK    2  A    between atoms: _4  and  _19
REMARK    3  A    between atoms: _6  and  _7
REMARK    4  A    between atoms: _6  and  _19
REMARK    5  A    between atoms: _9  and  _10
REMARK    6  A    between atoms: _15  and  _35
REMARK    7  A    between atoms: _17  and  _23
REMARK    8  A    between atoms: _18  and  _22
REMARK    9  A    between atoms: _22  and  _23
REMARK   10  A    between atoms: _25  and  _26
REMARK   11  A    between atoms: _27  and  _28
REMARK   12  A    between atoms: _29  and  _31
REMARK   13  A    between atoms: _31  and  _32
REMARK   14  A    between atoms: _31  and  _33
REMARK   15  A    between atoms: _33  and  _34
REMARK   16  A    between atoms: _33  and  _35
REMARK   17  A    between atoms: _36  and  _38
REMARK                            x       y       z     vdW  Elec       q    Type
REMARK                         _______ _______ _______ _____ _____    ______ ____
ROOT
ATOM      1  C   UNL     1      -5.430   7.748  24.645  0.00  0.00    +0.163 C 
ENDROOT
BRANCH   1   2
ATOM      2  O   UNL     1      -5.844   8.084  25.979  0.00  0.00    -0.388 OA
ATOM      3  H   UNL     1      -5.101   8.457  26.460  0.00  0.00    +0.210 HD
ENDBRANCH   1   2
BRANCH   1   4
ATOM      4  C   UNL     1      -3.931   7.468  24.618  0.00  0.00    +0.141 C 
BRANCH   4   7
ATOM      5  C   UNL     1      -2.187   6.935  26.285  0.00  0.00    +0.401 C 
ATOM      6  O   UNL     1      -1.501   6.281  25.496  0.00  0.00    -0.226 OA
ATOM      7  N   UNL     1      -3.341   7.520  25.961  0.00  0.00    -0.279 N 
ATOM      8  H   UNL     1      -3.837   8.028  26.680  0.00  0.00    +0.152 HD
BRANCH   5   9
ATOM      9  O   UNL     1      -1.740   7.087  27.635  0.00  0.00    -0.444 OA
BRANCH   9  10
ATOM     10  C   UNL     1      -2.776   6.674  28.530  0.00  0.00    +0.292 C 
BRANCH  10  12
ATOM     11  N   UNL     1      -4.635   8.296  28.728  0.00  0.00    -0.131 NA
ATOM     12  C   UNL     1      -3.414   7.848  29.154  0.00  0.00    +0.120 A 
ATOM     13  C   UNL     1      -2.989   8.631  30.207  0.00  0.00    +0.137 A 
ATOM     14  N   UNL     1      -4.023   9.500  30.411  0.00  0.00    -0.247 N 
ATOM     15  N   UNL     1      -5.005   9.304  29.510  0.00  0.00    -0.065 NA
BRANCH  14  16
ATOM     16  C   UNL     1      -4.251  10.348  31.568  0.00  0.00    +0.180 C 
BRANCH  16  17
ATOM     17  C   UNL     1      -3.707  11.747  31.412  0.00  0.00    -0.026 A 
ATOM     18  C   UNL     1      -4.292  12.653  30.514  0.00  0.00    +0.005 A 
ATOM     19  C   UNL     1      -3.842  13.974  30.447  0.00  0.00    +0.000 A 
ATOM     20  C   UNL     1      -2.808  14.404  31.275  0.00  0.00    +0.000 A 
ATOM     21  C   UNL     1      -2.213  13.513  32.165  0.00  0.00    +0.000 A 
ATOM     22  C   UNL     1      -2.659  12.191  32.234  0.00  0.00    +0.005 A 
ENDBRANCH  16  17
ENDBRANCH  14  16
ENDBRANCH  10  12
ENDBRANCH   9  10
ENDBRANCH   5   9
ENDBRANCH   4   7
ENDBRANCH   1   4
BRANCH   1  23
ATOM     23  C   UNL     1      -5.758   8.886  23.663  0.00  0.00    +0.175 C 
BRANCH  23  24
ATOM     24  C   UNL     1      -4.833  10.097  23.853  0.00  0.00    +0.176 C 
ATOM     25  O   UNL     1      -5.246  10.791  25.062  0.00  0.00    -0.332 OA
ATOM     26  C   UNL     1      -4.404  11.922  25.463  0.00  0.00    +0.277 C 
ATOM     27  C   UNL     1      -4.267  12.934  24.299  0.00  0.00    +0.110 C 
ATOM     28  C   UNL     1      -3.859  12.238  22.984  0.00  0.00    +0.143 C 
ATOM     29  C   UNL     1      -4.800  11.075  22.664  0.00  0.00    +0.133 C 
BRANCH  29  30
ATOM     30  N   UNL     1      -4.350  10.366  21.456  0.00  0.00    -0.308 N 
ATOM     31  H   UNL     1      -3.433   9.943  21.471  0.00  0.00    +0.149 HD
ATOM     32  C   UNL     1      -5.075  10.245  20.341  0.00  0.00    +0.210 C 
ATOM     33  C   UNL     1      -6.458  10.923  20.340  0.00  0.00    +0.109 C 
ATOM     34  O   UNL     1      -4.679   9.632  19.349  0.00  0.00    -0.276 OA
ENDBRANCH  29  30
BRANCH  26  35
ATOM     35  C   UNL     1      -3.004  11.436  25.892  0.00  0.00    +0.414 C 
ATOM     36  O   UNL     1      -1.996  12.020  25.495  0.00  0.00    -0.240 OA
ATOM     37  O   UNL     1      -2.882  10.461  26.634  0.00  0.00    -0.240 OA
ENDBRANCH  26  35
BRANCH  26  38
ATOM     38  O   UNL     1      -5.051  12.590  26.577  0.00  0.00    -0.343 OA
ATOM     39  C   UNL     1      -6.054  13.569  26.204  0.00  0.00    +0.198 C 
ENDBRANCH  26  38
BRANCH  28  40
ATOM     40  O   UNL     1      -3.892  13.179  21.910  0.00  0.00    -0.390 OA
ATOM     41  H   UNL     1      -4.796  13.285  21.604  0.00  0.00    +0.210 HD
ENDBRANCH  28  40
ENDBRANCH  23  24
BRANCH  23  42
ATOM     42  O   UNL     1      -7.136   9.286  23.809  0.00  0.00    -0.387 OA
ATOM     43  H   UNL     1      -7.262   9.693  24.670  0.00  0.00    +0.210 HD
ENDBRANCH  23  42
ENDBRANCH   1  23
TORSDOF 15
