REMARK VINA RESULT:    -4.101      2.219      3.623
REMARK INTER + INTRA:         -10.651
REMARK INTER:                  -8.121
REMARK INTRA:                  -2.530
REMARK UNBOUND:                -2.835
REMARK  Name = lig_assembled_13.pdb
REMARK  20 active torsions:
REMARK  status: ('A' for Active; 'I' for Inactive)
REMARK    1  A    between atoms: _2  and  _9
REMARK    2  A    between atoms: _4  and  _18
REMARK    3  A    between atoms: _5  and  _11
REMARK    4  A    between atoms: _6  and  _7
REMARK    5  A    between atoms: _6  and  _18
REMARK    6  A    between atoms: _9  and  _10
REMARK    7  A    between atoms: _10  and  _12
REMARK    8  A    between atoms: _11  and  _12
REMARK    9  A    between atoms: _14  and  _34
REMARK   10  A    between atoms: _16  and  _22
REMARK   11  A    between atoms: _17  and  _21
REMARK   12  A    between atoms: _21  and  _22
REMARK   13  A    between atoms: _24  and  _25
REMARK   14  A    between atoms: _26  and  _27
REMARK   15  A    between atoms: _28  and  _30
REMARK   16  A    between atoms: _30  and  _31
REMARK   17  A    between atoms: _30  and  _32
REMARK   18  A    between atoms: _32  and  _33
REMARK   19  A    between atoms: _32  and  _34
REMARK   20  A    between atoms: _35  and  _37
REMARK                            x       y       z     vdW  Elec       q    Type
REMARK                         _______ _______ _______ _____ _____    ______ ____
ROOT
ATOM      1  C   UNL     1      -2.887  12.098  25.623  0.00  0.00    +0.163 C 
ENDROOT
BRANCH   1   2
ATOM      2  O   UNL     1      -2.499  12.608  24.337  0.00  0.00    -0.388 OA
ATOM      3  H   UNL     1      -2.945  13.443  24.176  0.00  0.00    +0.210 HD
ENDBRANCH   1   2
BRANCH   1   4
ATOM      4  C   UNL     1      -4.260  11.408  25.550  0.00  0.00    +0.175 C 
BRANCH   4   5
ATOM      5  C   UNL     1      -4.542  10.829  24.155  0.00  0.00    +0.176 C 
ATOM      6  O   UNL     1      -5.062  11.903  23.323  0.00  0.00    -0.332 OA
ATOM      7  C   UNL     1      -5.291  11.559  21.916  0.00  0.00    +0.277 C 
ATOM      8  C   UNL     1      -6.211  10.319  21.805  0.00  0.00    +0.110 C 
ATOM      9  C   UNL     1      -5.717   9.161  22.698  0.00  0.00    +0.143 C 
ATOM     10  C   UNL     1      -5.508   9.630  24.138  0.00  0.00    +0.133 C 
BRANCH  10  11
ATOM     11  N   UNL     1      -4.955   8.542  24.960  0.00  0.00    -0.308 N 
ATOM     12  H   UNL     1      -4.037   8.193  24.723  0.00  0.00    +0.149 HD
ATOM     13  C   UNL     1      -5.586   7.985  25.997  0.00  0.00    +0.210 C 
ATOM     14  C   UNL     1      -6.995   8.522  26.315  0.00  0.00    +0.109 C 
ATOM     15  O   UNL     1      -5.092   7.085  26.676  0.00  0.00    -0.276 OA
ENDBRANCH  10  11
BRANCH   7  16
ATOM     16  C   UNL     1      -3.956  11.277  21.197  0.00  0.00    +0.414 C 
ATOM     17  O   UNL     1      -2.936  11.885  21.521  0.00  0.00    -0.240 OA
ATOM     18  O   UNL     1      -3.898  10.441  20.294  0.00  0.00    -0.240 OA
ENDBRANCH   7  16
BRANCH   7  19
ATOM     19  O   UNL     1      -5.958  12.681  21.283  0.00  0.00    -0.343 OA
ATOM     20  C   UNL     1      -5.998  13.896  22.075  0.00  0.00    +0.198 C 
ENDBRANCH   7  19
BRANCH   9  21
ATOM     21  O   UNL     1      -6.671   8.099  22.682  0.00  0.00    -0.390 OA
ATOM     22  H   UNL     1      -6.662   7.673  21.822  0.00  0.00    +0.210 HD
ENDBRANCH   9  21
ENDBRANCH   4   5
BRANCH   4  23
ATOM     23  O   UNL     1      -5.301  12.332  25.924  0.00  0.00    -0.387 OA
ATOM     24  H   UNL     1      -4.925  13.208  26.040  0.00  0.00    +0.210 HD
ENDBRANCH   4  23
ENDBRANCH   1   4
BRANCH   1  25
ATOM     25  C   UNL     1      -1.844  11.105  26.127  0.00  0.00    +0.141 C 
BRANCH  25  28
ATOM     26  C   UNL     1      -2.316   9.072  27.450  0.00  0.00    +0.401 C 
ATOM     27  O   UNL     1      -1.967   8.296  26.557  0.00  0.00    -0.226 OA
ATOM     28  N   UNL     1      -2.297  10.400  27.332  0.00  0.00    -0.279 N 
ATOM     29  H   UNL     1      -2.611  10.953  28.117  0.00  0.00    +0.152 HD
BRANCH  26  30
ATOM     30  O   UNL     1      -2.776   8.538  28.694  0.00  0.00    -0.444 OA
BRANCH  30  31
ATOM     31  C   UNL     1      -3.920   9.273  29.136  0.00  0.00    +0.292 C 
BRANCH  31  33
ATOM     32  N   UNL     1      -2.683   9.835  31.204  0.00  0.00    -0.131 NA
ATOM     33  C   UNL     1      -3.547  10.209  30.211  0.00  0.00    +0.120 A 
ATOM     34  C   UNL     1      -3.947  11.505  30.426  0.00  0.00    +0.137 A 
ATOM     35  N   UNL     1      -3.346  11.843  31.604  0.00  0.00    -0.241 N 
ATOM     36  N   UNL     1      -2.550  10.856  32.043  0.00  0.00    -0.065 NA
BRANCH  35  37
ATOM     37  C   UNL     1      -3.398  13.105  32.307  0.00  0.00    +0.265 C 
BRANCH  37  38
ATOM     38  C   UNL     1      -2.338  14.058  31.835  0.00  0.00    +0.329 C 
ATOM     39  O   UNL     1      -1.155  14.041  32.142  0.00  0.00    -0.249 OA
BRANCH  38  40
ATOM     40  O   UNL     1      -2.924  15.033  31.077  0.00  0.00    -0.464 OA
BRANCH  40  41
ATOM     41  C   UNL     1      -3.845  15.878  31.784  0.00  0.00    +0.229 C 
ATOM     42  C   UNL     1      -4.467  16.832  30.780  0.00  0.00    +0.048 C 
ENDBRANCH  40  41
ENDBRANCH  38  40
ENDBRANCH  37  38
ENDBRANCH  35  37
ENDBRANCH  31  33
ENDBRANCH  30  31
ENDBRANCH  26  30
ENDBRANCH  25  28
ENDBRANCH   1  25
TORSDOF 17
