REMARK VINA RESULT:    -4.581      5.171     12.491
REMARK INTER + INTRA:         -11.174
REMARK INTER:                  -8.463
REMARK INTRA:                  -2.711
REMARK UNBOUND:                -2.711
REMARK  Name = lig_assembled_36.pdb
REMARK  18 active torsions:
REMARK  status: ('A' for Active; 'I' for Inactive)
REMARK    1  A    between atoms: _2  and  _10
REMARK    2  A    between atoms: _5  and  _21
REMARK    3  A    between atoms: _7  and  _8
REMARK    4  A    between atoms: _7  and  _21
REMARK    5  A    between atoms: _10  and  _11
REMARK    6  A    between atoms: _14  and  _15
REMARK    7  A    between atoms: _17  and  _37
REMARK    8  A    between atoms: _19  and  _25
REMARK    9  A    between atoms: _20  and  _24
REMARK   10  A    between atoms: _24  and  _25
REMARK   11  A    between atoms: _27  and  _28
REMARK   12  A    between atoms: _29  and  _30
REMARK   13  A    between atoms: _31  and  _33
REMARK   14  A    between atoms: _33  and  _34
REMARK   15  A    between atoms: _33  and  _35
REMARK   16  A    between atoms: _35  and  _36
REMARK   17  A    between atoms: _35  and  _37
REMARK   18  A    between atoms: _38  and  _40
REMARK                            x       y       z     vdW  Elec       q    Type
REMARK                         _______ _______ _______ _____ _____    ______ ____
ROOT
ATOM      1  C   UNL     1      -7.203  10.923  14.694  0.00  0.00    +0.163 C 
ENDROOT
BRANCH   1   2
ATOM      2  O   UNL     1      -6.314  11.963  14.255  0.00  0.00    -0.388 OA
ATOM      3  H   UNL     1      -6.333  12.018  13.296  0.00  0.00    +0.210 HD
ENDBRANCH   1   2
BRANCH   1   4
ATOM      4  C   UNL     1      -6.547   9.540  14.544  0.00  0.00    +0.175 C 
BRANCH   4   5
ATOM      5  C   UNL     1      -5.070   9.641  14.138  0.00  0.00    +0.176 C 
ATOM      6  O   UNL     1      -5.011   9.762  12.690  0.00  0.00    -0.332 OA
ATOM      7  C   UNL     1      -3.676   9.977  12.125  0.00  0.00    +0.277 C 
ATOM      8  C   UNL     1      -2.703   8.868  12.598  0.00  0.00    +0.110 C 
ATOM      9  C   UNL     1      -2.754   8.681  14.129  0.00  0.00    +0.143 C 
ATOM     10  C   UNL     1      -4.190   8.468  14.609  0.00  0.00    +0.133 C 
BRANCH  10  11
ATOM     11  N   UNL     1      -4.235   8.378  16.077  0.00  0.00    -0.308 N 
ATOM     12  H   UNL     1      -3.905   9.172  16.608  0.00  0.00    +0.149 HD
ATOM     13  C   UNL     1      -4.683   7.317  16.753  0.00  0.00    +0.210 C 
ATOM     14  C   UNL     1      -5.154   6.114  15.914  0.00  0.00    +0.109 C 
ATOM     15  O   UNL     1      -4.722   7.276  17.983  0.00  0.00    -0.276 OA
ENDBRANCH  10  11
BRANCH   7  16
ATOM     16  C   UNL     1      -3.123  11.357  12.537  0.00  0.00    +0.414 C 
ATOM     17  O   UNL     1      -3.892  12.258  12.873  0.00  0.00    -0.240 OA
ATOM     18  O   UNL     1      -1.910  11.570  12.535  0.00  0.00    -0.240 OA
ENDBRANCH   7  16
BRANCH   7  19
ATOM     19  O   UNL     1      -3.783   9.906  10.680  0.00  0.00    -0.343 OA
ATOM     20  C   UNL     1      -4.279   8.645  10.164  0.00  0.00    +0.198 C 
ENDBRANCH   7  19
BRANCH   9  21
ATOM     21  O   UNL     1      -1.960   7.554  14.503  0.00  0.00    -0.390 OA
ATOM     22  H   UNL     1      -1.740   7.612  15.436  0.00  0.00    +0.210 HD
ENDBRANCH   9  21
ENDBRANCH   4   5
BRANCH   4  23
ATOM     23  O   UNL     1      -7.273   8.747  13.583  0.00  0.00    -0.387 OA
ATOM     24  H   UNL     1      -6.909   8.894  12.707  0.00  0.00    +0.210 HD
ENDBRANCH   4  23
ENDBRANCH   1   4
BRANCH   1  25
ATOM     25  C   UNL     1      -7.590  11.148  16.152  0.00  0.00    +0.141 C 
BRANCH  25  28
ATOM     26  C   UNL     1      -5.507  11.256  17.477  0.00  0.00    +0.401 C 
ATOM     27  O   UNL     1      -5.220  12.397  17.108  0.00  0.00    -0.226 OA
ATOM     28  N   UNL     1      -6.592  10.593  17.075  0.00  0.00    -0.279 N 
ATOM     29  H   UNL     1      -6.737   9.657  17.426  0.00  0.00    +0.152 HD
BRANCH  26  30
ATOM     30  O   UNL     1      -4.635  10.580  18.387  0.00  0.00    -0.444 OA
BRANCH  30  31
ATOM     31  C   UNL     1      -5.320  10.345  19.620  0.00  0.00    +0.292 C 
BRANCH  31  33
ATOM     32  N   UNL     1      -6.389  12.252  20.785  0.00  0.00    -0.131 NA
ATOM     33  C   UNL     1      -5.258  11.544  20.476  0.00  0.00    +0.120 A 
ATOM     34  C   UNL     1      -4.177  12.127  21.099  0.00  0.00    +0.137 A 
ATOM     35  N   UNL     1      -4.733  13.124  21.846  0.00  0.00    -0.247 N 
ATOM     36  N   UNL     1      -6.053  13.232  21.611  0.00  0.00    -0.065 NA
BRANCH  35  37
ATOM     37  C   UNL     1      -4.078  13.992  22.804  0.00  0.00    +0.180 C 
BRANCH  37  38
ATOM     38  C   UNL     1      -3.952  13.323  24.153  0.00  0.00    -0.026 A 
ATOM     39  C   UNL     1      -2.764  12.677  24.529  0.00  0.00    +0.007 A 
ATOM     40  C   UNL     1      -2.655  12.064  25.781  0.00  0.00    +0.019 A 
ATOM     41  C   UNL     1      -3.732  12.085  26.672  0.00  0.00    +0.052 A 
ATOM     42  C   UNL     1      -4.926  12.705  26.297  0.00  0.00    +0.019 A 
ATOM     43  C   UNL     1      -5.036  13.316  25.044  0.00  0.00    +0.007 A 
BRANCH  41  44
ATOM     44  C   UNL     1      -3.610  11.473  27.966  0.00  0.00    +0.099 C 
ATOM     45  N   UNL     1      -3.503  10.972  29.006  0.00  0.00    -0.191 NA
ENDBRANCH  41  44
ENDBRANCH  37  38
ENDBRANCH  35  37
ENDBRANCH  31  33
ENDBRANCH  30  31
ENDBRANCH  26  30
ENDBRANCH  25  28
ENDBRANCH   1  25
TORSDOF 16
