REMARK VINA RESULT:    -4.328      5.793      9.766
REMARK INTER + INTRA:         -11.976
REMARK INTER:                  -9.714
REMARK INTRA:                  -2.262
REMARK UNBOUND:                -3.979
REMARK  Name = lig_assembled_24.pdb
REMARK  19 active torsions:
REMARK  status: ('A' for Active; 'I' for Inactive)
REMARK    1  A    between atoms: _2  and  _9
REMARK    2  A    between atoms: _4  and  _21
REMARK    3  A    between atoms: _6  and  _7
REMARK    4  A    between atoms: _6  and  _21
REMARK    5  A    between atoms: _9  and  _10
REMARK    6  A    between atoms: _13  and  _16
REMARK    7  A    between atoms: _14  and  _16
REMARK    8  A    between atoms: _17  and  _37
REMARK    9  A    between atoms: _19  and  _25
REMARK   10  A    between atoms: _20  and  _24
REMARK   11  A    between atoms: _24  and  _25
REMARK   12  A    between atoms: _27  and  _28
REMARK   13  A    between atoms: _29  and  _30
REMARK   14  A    between atoms: _31  and  _33
REMARK   15  A    between atoms: _33  and  _34
REMARK   16  A    between atoms: _33  and  _35
REMARK   17  A    between atoms: _35  and  _36
REMARK   18  A    between atoms: _35  and  _37
REMARK   19  A    between atoms: _38  and  _40
REMARK                            x       y       z     vdW  Elec       q    Type
REMARK                         _______ _______ _______ _____ _____    ______ ____
ROOT
ATOM      1  C   UNL     1      -3.085   9.419  14.208  0.00  0.00    +0.163 C 
ENDROOT
BRANCH   1   2
ATOM      2  O   UNL     1      -1.771   9.144  13.695  0.00  0.00    -0.388 OA
ATOM      3  H   UNL     1      -1.727   9.402  12.771  0.00  0.00    +0.210 HD
ENDBRANCH   1   2
BRANCH   1   4
ATOM      4  C   UNL     1      -4.026   9.890  13.087  0.00  0.00    +0.175 C 
BRANCH   4   5
ATOM      5  C   UNL     1      -3.701  11.317  12.621  0.00  0.00    +0.176 C 
ATOM      6  O   UNL     1      -2.397  11.291  11.978  0.00  0.00    -0.332 OA
ATOM      7  C   UNL     1      -1.964  12.554  11.372  0.00  0.00    +0.277 C 
ATOM      8  C   UNL     1      -2.010  13.698  12.415  0.00  0.00    +0.110 C 
ATOM      9  C   UNL     1      -3.367  13.745  13.148  0.00  0.00    +0.143 C 
ATOM     10  C   UNL     1      -3.721  12.379  13.737  0.00  0.00    +0.133 C 
BRANCH  10  11
ATOM     11  N   UNL     1      -5.054  12.415  14.357  0.00  0.00    -0.308 N 
ATOM     12  H   UNL     1      -5.859  12.412  13.746  0.00  0.00    +0.149 HD
ATOM     13  C   UNL     1      -5.271  12.450  15.675  0.00  0.00    +0.210 C 
ATOM     14  C   UNL     1      -4.024  12.478  16.578  0.00  0.00    +0.109 C 
ATOM     15  O   UNL     1      -6.400  12.464  16.167  0.00  0.00    -0.276 OA
ENDBRANCH  10  11
BRANCH   7  16
ATOM     16  C   UNL     1      -2.857  12.918  10.168  0.00  0.00    +0.414 C 
ATOM     17  O   UNL     1      -3.326  14.051  10.064  0.00  0.00    -0.240 OA
ATOM     18  O   UNL     1      -3.107  12.080   9.301  0.00  0.00    -0.240 OA
ENDBRANCH   7  16
BRANCH   7  19
ATOM     19  O   UNL     1      -0.591  12.393  10.931  0.00  0.00    -0.343 OA
ATOM     20  C   UNL     1       0.090  13.626  10.585  0.00  0.00    +0.198 C 
ENDBRANCH   7  19
BRANCH   9  21
ATOM     21  O   UNL     1      -3.313  14.711  14.200  0.00  0.00    -0.390 OA
ATOM     22  H   UNL     1      -3.953  15.406  14.030  0.00  0.00    +0.210 HD
ENDBRANCH   9  21
ENDBRANCH   4   5
BRANCH   4  23
ATOM     23  O   UNL     1      -5.397   9.810  13.523  0.00  0.00    -0.387 OA
ATOM     24  H   UNL     1      -5.980   9.885  12.763  0.00  0.00    +0.210 HD
ENDBRANCH   4  23
ENDBRANCH   1   4
BRANCH   1  25
ATOM     25  C   UNL     1      -3.660   8.168  14.864  0.00  0.00    +0.141 C 
BRANCH  25  28
ATOM     26  C   UNL     1      -4.847   8.751  16.951  0.00  0.00    +0.401 C 
ATOM     27  O   UNL     1      -5.882   9.097  16.377  0.00  0.00    -0.226 OA
ATOM     28  N   UNL     1      -3.758   8.310  16.322  0.00  0.00    -0.279 N 
ATOM     29  H   UNL     1      -2.954   8.059  16.880  0.00  0.00    +0.152 HD
BRANCH  26  30
ATOM     30  O   UNL     1      -4.788   8.823  18.378  0.00  0.00    -0.444 OA
BRANCH  30  31
ATOM     31  C   UNL     1      -5.593   9.913  18.836  0.00  0.00    +0.292 C 
BRANCH  31  33
ATOM     32  N   UNL     1      -4.616   9.722  21.102  0.00  0.00    -0.131 NA
ATOM     33  C   UNL     1      -5.009  10.508  20.052  0.00  0.00    +0.120 A 
ATOM     34  C   UNL     1      -4.744  11.825  20.352  0.00  0.00    +0.137 A 
ATOM     35  N   UNL     1      -4.126  11.773  21.567  0.00  0.00    -0.247 N 
ATOM     36  N   UNL     1      -4.085  10.506  22.028  0.00  0.00    -0.065 NA
BRANCH  35  37
ATOM     37  C   UNL     1      -3.492  12.818  22.355  0.00  0.00    +0.180 C 
BRANCH  37  38
ATOM     38  C   UNL     1      -3.600  12.636  23.850  0.00  0.00    -0.026 A 
ATOM     39  C   UNL     1      -4.722  13.107  24.544  0.00  0.00    +0.009 A 
ATOM     40  C   UNL     1      -4.816  12.933  25.928  0.00  0.00    +0.046 A 
ATOM     41  C   UNL     1      -3.805  12.276  26.633  0.00  0.00    +0.120 A 
ATOM     42  C   UNL     1      -2.676  11.827  25.952  0.00  0.00    +0.046 A 
ATOM     43  C   UNL     1      -2.573  12.005  24.568  0.00  0.00    +0.009 A 
BRANCH  41  44
ATOM     44  O   UNL     1      -3.998  12.184  27.984  0.00  0.00    -0.495 OA
ATOM     45  C   UNL     1      -3.912  10.869  28.526  0.00  0.00    +0.277 C 
ENDBRANCH  41  44
ENDBRANCH  37  38
ENDBRANCH  35  37
ENDBRANCH  31  33
ENDBRANCH  30  31
ENDBRANCH  26  30
ENDBRANCH  25  28
ENDBRANCH   1  25
TORSDOF 16
