REMARK VINA RESULT:    -3.835      1.861      4.310
REMARK INTER + INTRA:         -12.368
REMARK INTER:                  -9.210
REMARK INTRA:                  -3.158
REMARK UNBOUND:                -4.498
REMARK  Name = lig_assembled_33.pdb
REMARK  22 active torsions:
REMARK  status: ('A' for Active; 'I' for Inactive)
REMARK    1  A    between atoms: _2  and  _9
REMARK    2  A    between atoms: _4  and  _20
REMARK    3  A    between atoms: _5  and  _13
REMARK    4  A    between atoms: _5  and  _14
REMARK    5  A    between atoms: _6  and  _7
REMARK    6  A    between atoms: _6  and  _20
REMARK    7  A    between atoms: _9  and  _10
REMARK    8  A    between atoms: _10  and  _11
REMARK    9  A    between atoms: _11  and  _12
REMARK   10  A    between atoms: _12  and  _13
REMARK   11  A    between atoms: _16  and  _36
REMARK   12  A    between atoms: _18  and  _24
REMARK   13  A    between atoms: _19  and  _23
REMARK   14  A    between atoms: _23  and  _24
REMARK   15  A    between atoms: _26  and  _27
REMARK   16  A    between atoms: _28  and  _29
REMARK   17  A    between atoms: _30  and  _32
REMARK   18  A    between atoms: _32  and  _33
REMARK   19  A    between atoms: _32  and  _34
REMARK   20  A    between atoms: _34  and  _35
REMARK   21  A    between atoms: _34  and  _36
REMARK   22  A    between atoms: _37  and  _39
REMARK                            x       y       z     vdW  Elec       q    Type
REMARK                         _______ _______ _______ _____ _____    ______ ____
ROOT
ATOM      1  C   UNL     1      -4.628  12.148  27.973  0.00  0.00    +0.163 C 
ENDROOT
BRANCH   1   2
ATOM      2  O   UNL     1      -5.610  11.724  27.013  0.00  0.00    -0.388 OA
ATOM      3  H   UNL     1      -5.886  10.826  27.213  0.00  0.00    +0.210 HD
ENDBRANCH   1   2
BRANCH   1   4
ATOM      4  C   UNL     1      -5.123  11.910  29.409  0.00  0.00    +0.175 C 
BRANCH   4   5
ATOM      5  C   UNL     1      -4.378  10.755  30.094  0.00  0.00    +0.176 C 
ATOM      6  O   UNL     1      -5.312   9.651  30.250  0.00  0.00    -0.332 OA
ATOM      7  C   UNL     1      -4.745   8.413  30.794  0.00  0.00    +0.277 C 
ATOM      8  C   UNL     1      -4.033   8.690  32.140  0.00  0.00    +0.110 C 
ATOM      9  C   UNL     1      -3.052   9.877  32.032  0.00  0.00    +0.143 C 
ATOM     10  C   UNL     1      -3.746  11.111  31.452  0.00  0.00    +0.133 C 
BRANCH  10  11
ATOM     11  N   UNL     1      -2.781  12.207  31.272  0.00  0.00    -0.308 N 
ATOM     12  H   UNL     1      -2.044  12.081  30.593  0.00  0.00    +0.149 HD
ATOM     13  C   UNL     1      -2.816  13.358  31.949  0.00  0.00    +0.210 C 
ATOM     14  C   UNL     1      -3.936  13.510  32.996  0.00  0.00    +0.109 C 
ATOM     15  O   UNL     1      -2.003  14.266  31.767  0.00  0.00    -0.276 OA
ENDBRANCH  10  11
BRANCH   7  16
ATOM     16  C   UNL     1      -3.745   7.787  29.800  0.00  0.00    +0.414 C 
ATOM     17  O   UNL     1      -4.044   7.666  28.613  0.00  0.00    -0.240 OA
ATOM     18  O   UNL     1      -2.640   7.403  30.186  0.00  0.00    -0.240 OA
ENDBRANCH   7  16
BRANCH   9  19
ATOM     19  O   UNL     1      -2.534  10.193  33.324  0.00  0.00    -0.390 OA
ATOM     20  H   UNL     1      -2.911  11.022  33.628  0.00  0.00    +0.210 HD
ENDBRANCH   9  19
BRANCH   7  21
ATOM     21  O   UNL     1      -5.837   7.488  31.036  0.00  0.00    -0.343 OA
ATOM     22  C   UNL     1      -5.444   6.213  31.603  0.00  0.00    +0.198 C 
ENDBRANCH   7  21
ENDBRANCH   4   5
BRANCH   4  23
ATOM     23  O   UNL     1      -6.542  11.656  29.409  0.00  0.00    -0.387 OA
ATOM     24  H   UNL     1      -6.843  11.517  28.508  0.00  0.00    +0.210 HD
ENDBRANCH   4  23
ENDBRANCH   1   4
BRANCH   1  25
ATOM     25  C   UNL     1      -3.322  11.392  27.752  0.00  0.00    +0.141 C 
BRANCH  25  28
ATOM     26  C   UNL     1      -2.795   9.880  25.870  0.00  0.00    +0.401 C 
ATOM     27  O   UNL     1      -1.890  10.592  25.429  0.00  0.00    -0.226 OA
ATOM     28  N   UNL     1      -3.521  10.180  26.948  0.00  0.00    -0.279 N 
ATOM     29  H   UNL     1      -4.249   9.537  27.227  0.00  0.00    +0.152 HD
BRANCH  26  30
ATOM     30  O   UNL     1      -3.106   8.656  25.199  0.00  0.00    -0.444 OA
BRANCH  30  31
ATOM     31  C   UNL     1      -4.514   8.586  24.960  0.00  0.00    +0.292 C 
BRANCH  31  33
ATOM     32  N   UNL     1      -4.385   8.397  22.497  0.00  0.00    -0.131 NA
ATOM     33  C   UNL     1      -4.831   9.070  23.604  0.00  0.00    +0.120 A 
ATOM     34  C   UNL     1      -5.550  10.174  23.199  0.00  0.00    +0.137 A 
ATOM     35  N   UNL     1      -5.512  10.108  21.839  0.00  0.00    -0.251 N 
ATOM     36  N   UNL     1      -4.797   9.050  21.420  0.00  0.00    -0.065 NA
BRANCH  35  37
ATOM     37  C   UNL     1      -6.112  11.011  20.880  0.00  0.00    +0.145 C 
BRANCH  37  38
ATOM     38  C   UNL     1      -5.453  12.389  20.898  0.00  0.00    +0.023 C 
BRANCH  38  39
ATOM     39  C   UNL     1      -4.013  12.361  20.380  0.00  0.00    +0.002 C 
BRANCH  39  40
ATOM     40  C   UNL     1      -3.042  12.651  21.527  0.00  0.00    +0.011 C 
BRANCH  40  41
ATOM     41  C   UNL     1      -3.567  13.708  22.495  0.00  0.00    +0.120 C 
BRANCH  41  42
ATOM     42  C   UNL     1      -3.433  13.252  23.931  0.00  0.00    +0.305 C 
ATOM     43  O   UNL     1      -4.357  13.099  24.714  0.00  0.00    -0.251 OA
BRANCH  42  44
ATOM     44  O   UNL     1      -2.147  13.015  24.278  0.00  0.00    -0.481 OA
ATOM     45  H   UNL     1      -1.496  13.377  23.650  0.00  0.00    +0.295 HD
ENDBRANCH  42  44
ENDBRANCH  41  42
ENDBRANCH  40  41
ENDBRANCH  39  40
ENDBRANCH  38  39
ENDBRANCH  37  38
ENDBRANCH  35  37
ENDBRANCH  31  33
ENDBRANCH  30  31
ENDBRANCH  26  30
ENDBRANCH  25  28
ENDBRANCH   1  25
TORSDOF 20
