REMARK VINA RESULT:    -4.465      2.774      5.434
REMARK INTER + INTRA:         -12.080
REMARK INTER:                  -8.747
REMARK INTRA:                  -3.333
REMARK UNBOUND:                -2.785
REMARK  Name = lig_assembled_54.pdb
REMARK  24 active torsions:
REMARK  status: ('A' for Active; 'I' for Inactive)
REMARK    1  A    between atoms: _2  and  _9
REMARK    2  A    between atoms: _4  and  _21
REMARK    3  A    between atoms: _5  and  _14
REMARK    4  A    between atoms: _6  and  _7
REMARK    5  A    between atoms: _6  and  _21
REMARK    6  A    between atoms: _9  and  _10
REMARK    7  A    between atoms: _10  and  _11
REMARK    8  A    between atoms: _11  and  _15
REMARK    9  A    between atoms: _11  and  _16
REMARK   10  A    between atoms: _12  and  _13
REMARK   11  A    between atoms: _12  and  _16
REMARK   12  A    between atoms: _14  and  _15
REMARK   13  A    between atoms: _17  and  _37
REMARK   14  A    between atoms: _19  and  _25
REMARK   15  A    between atoms: _20  and  _24
REMARK   16  A    between atoms: _24  and  _25
REMARK   17  A    between atoms: _27  and  _28
REMARK   18  A    between atoms: _29  and  _30
REMARK   19  A    between atoms: _31  and  _33
REMARK   20  A    between atoms: _33  and  _34
REMARK   21  A    between atoms: _33  and  _35
REMARK   22  A    between atoms: _35  and  _36
REMARK   23  A    between atoms: _35  and  _37
REMARK   24  A    between atoms: _38  and  _40
REMARK                            x       y       z     vdW  Elec       q    Type
REMARK                         _______ _______ _______ _____ _____    ______ ____
ROOT
ATOM      1  C   UNL     1      -2.891  11.059  22.643  0.00  0.00    +0.163 C 
ENDROOT
BRANCH   1   2
ATOM      2  O   UNL     1      -2.832  11.968  21.531  0.00  0.00    -0.388 OA
ATOM      3  H   UNL     1      -2.256  11.607  20.852  0.00  0.00    +0.210 HD
ENDBRANCH   1   2
BRANCH   1   4
ATOM      4  C   UNL     1      -3.246  11.802  23.942  0.00  0.00    +0.175 C 
BRANCH   4   5
ATOM      5  C   UNL     1      -4.461  12.725  23.767  0.00  0.00    +0.176 C 
ATOM      6  O   UNL     1      -4.010  13.934  23.097  0.00  0.00    -0.332 OA
ATOM      7  C   UNL     1      -5.062  14.894  22.748  0.00  0.00    +0.277 C 
ATOM      8  C   UNL     1      -5.890  15.269  24.002  0.00  0.00    +0.110 C 
ATOM      9  C   UNL     1      -6.364  14.015  24.766  0.00  0.00    +0.143 C 
ATOM     10  C   UNL     1      -5.191  13.084  25.075  0.00  0.00    +0.133 C 
BRANCH  10  11
ATOM     11  N   UNL     1      -5.667  11.853  25.725  0.00  0.00    -0.308 N 
ATOM     12  H   UNL     1      -6.421  11.347  25.283  0.00  0.00    +0.149 HD
ATOM     13  C   UNL     1      -5.168  11.361  26.862  0.00  0.00    +0.210 C 
ATOM     14  C   UNL     1      -4.036  12.169  27.526  0.00  0.00    +0.109 C 
ATOM     15  O   UNL     1      -5.576  10.320  27.377  0.00  0.00    -0.276 OA
ENDBRANCH  10  11
BRANCH   7  16
ATOM     16  C   UNL     1      -5.997  14.314  21.667  0.00  0.00    +0.414 C 
ATOM     17  O   UNL     1      -7.148  14.732  21.554  0.00  0.00    -0.240 OA
ATOM     18  O   UNL     1      -5.600  13.428  20.909  0.00  0.00    -0.240 OA
ENDBRANCH   7  16
BRANCH   9  19
ATOM     19  O   UNL     1      -6.990  14.404  25.990  0.00  0.00    -0.390 OA
ATOM     20  H   UNL     1      -6.659  15.264  26.259  0.00  0.00    +0.210 HD
ENDBRANCH   9  19
BRANCH   7  21
ATOM     21  O   UNL     1      -4.423  16.097  22.247  0.00  0.00    -0.343 OA
ATOM     22  C   UNL     1      -5.212  17.307  22.370  0.00  0.00    +0.198 C 
ENDBRANCH   7  21
ENDBRANCH   4   5
BRANCH   4  23
ATOM     23  O   UNL     1      -2.110  12.558  24.408  0.00  0.00    -0.387 OA
ATOM     24  H   UNL     1      -2.385  13.454  24.615  0.00  0.00    +0.210 HD
ENDBRANCH   4  23
ENDBRANCH   1   4
BRANCH   1  25
ATOM     25  C   UNL     1      -3.930   9.975  22.375  0.00  0.00    +0.141 C 
BRANCH  25  28
ATOM     26  C   UNL     1      -5.000   8.695  24.198  0.00  0.00    +0.401 C 
ATOM     27  O   UNL     1      -6.077   9.291  24.110  0.00  0.00    -0.226 OA
ATOM     28  N   UNL     1      -3.941   8.955  23.431  0.00  0.00    -0.279 N 
ATOM     29  H   UNL     1      -3.098   8.419  23.584  0.00  0.00    +0.152 HD
BRANCH  26  30
ATOM     30  O   UNL     1      -4.855   7.663  25.177  0.00  0.00    -0.444 OA
BRANCH  30  31
ATOM     31  C   UNL     1      -3.470   7.336  25.324  0.00  0.00    +0.292 C 
BRANCH  31  33
ATOM     32  N   UNL     1      -1.940   8.789  26.621  0.00  0.00    -0.131 NA
ATOM     33  C   UNL     1      -2.957   7.871  26.600  0.00  0.00    +0.120 A 
ATOM     34  C   UNL     1      -3.357   7.611  27.893  0.00  0.00    +0.137 A 
ATOM     35  N   UNL     1      -2.573   8.429  28.649  0.00  0.00    -0.251 N 
ATOM     36  N   UNL     1      -1.718   9.130  27.883  0.00  0.00    -0.065 NA
BRANCH  35  37
ATOM     37  C   UNL     1      -2.616   8.643  30.082  0.00  0.00    +0.150 C 
BRANCH  37  38
ATOM     38  C   UNL     1      -2.852  10.106  30.426  0.00  0.00    +0.084 C 
BRANCH  38  39
ATOM     39  C   UNL     1      -2.602  10.433  31.903  0.00  0.00    +0.252 C 
BRANCH  39  40
ATOM     40  O   UNL     1      -3.656   9.902  32.711  0.00  0.00    -0.352 OA
BRANCH  40  41
ATOM     41  C   UNL     1      -3.234   9.451  33.997  0.00  0.00    +0.159 C 
ATOM     42  C   UNL     1      -3.222   7.935  34.004  0.00  0.00    +0.034 C 
ENDBRANCH  40  41
ENDBRANCH  39  40
BRANCH  39  43
ATOM     43  O   UNL     1      -2.564  11.859  32.030  0.00  0.00    -0.352 OA
BRANCH  43  44
ATOM     44  C   UNL     1      -3.199  12.524  30.936  0.00  0.00    +0.159 C 
ATOM     45  C   UNL     1      -3.945  13.736  31.457  0.00  0.00    +0.034 C 
ENDBRANCH  43  44
ENDBRANCH  39  43
ENDBRANCH  38  39
ENDBRANCH  37  38
ENDBRANCH  35  37
ENDBRANCH  31  33
ENDBRANCH  30  31
ENDBRANCH  26  30
ENDBRANCH  25  28
ENDBRANCH   1  25
TORSDOF 20
