REMARK VINA RESULT:    -5.401      3.835      9.766
REMARK INTER + INTRA:         -11.853
REMARK INTER:                  -9.611
REMARK INTRA:                  -2.242
REMARK UNBOUND:                -2.505
REMARK  Name = lig_assembled_3.pdb
REMARK  16 active torsions:
REMARK  status: ('A' for Active; 'I' for Inactive)
REMARK    1  A    between atoms: _2  and  _9
REMARK    2  A    between atoms: _4  and  _18
REMARK    3  A    between atoms: _6  and  _7
REMARK    4  A    between atoms: _6  and  _18
REMARK    5  A    between atoms: _14  and  _34
REMARK    6  A    between atoms: _16  and  _22
REMARK    7  A    between atoms: _17  and  _21
REMARK    8  A    between atoms: _21  and  _22
REMARK    9  A    between atoms: _24  and  _25
REMARK   10  A    between atoms: _26  and  _27
REMARK   11  A    between atoms: _28  and  _30
REMARK   12  A    between atoms: _30  and  _31
REMARK   13  A    between atoms: _30  and  _32
REMARK   14  A    between atoms: _32  and  _33
REMARK   15  A    between atoms: _32  and  _34
REMARK   16  A    between atoms: _35  and  _37
REMARK                            x       y       z     vdW  Elec       q    Type
REMARK                         _______ _______ _______ _____ _____    ______ ____
ROOT
ATOM      1  C   UNL     1      -3.257  11.789  25.144  0.00  0.00    +0.163 C 
ENDROOT
BRANCH   1   2
ATOM      2  O   UNL     1      -2.188  10.833  25.063  0.00  0.00    -0.388 OA
ATOM      3  H   UNL     1      -2.255  10.346  24.238  0.00  0.00    +0.210 HD
ENDBRANCH   1   2
BRANCH   1   4
ATOM      4  C   UNL     1      -2.881  13.058  24.387  0.00  0.00    +0.141 C 
BRANCH   4   7
ATOM      5  C   UNL     1      -4.901  13.954  23.281  0.00  0.00    +0.401 C 
ATOM      6  O   UNL     1      -5.361  14.450  24.312  0.00  0.00    -0.226 OA
ATOM      7  N   UNL     1      -3.751  13.281  23.225  0.00  0.00    -0.279 N 
ATOM      8  H   UNL     1      -3.462  12.903  22.334  0.00  0.00    +0.152 HD
BRANCH   5   9
ATOM      9  O   UNL     1      -5.630  14.094  22.059  0.00  0.00    -0.444 OA
BRANCH   9  10
ATOM     10  C   UNL     1      -6.334  12.880  21.781  0.00  0.00    +0.292 C 
BRANCH  10  12
ATOM     11  N   UNL     1      -7.223  12.637  19.485  0.00  0.00    -0.131 NA
ATOM     12  C   UNL     1      -6.183  12.513  20.360  0.00  0.00    +0.121 A 
ATOM     13  C   UNL     1      -5.083  12.033  19.687  0.00  0.00    +0.143 A 
ATOM     14  N   UNL     1      -5.494  11.900  18.380  0.00  0.00    -0.220 N 
ATOM     15  N   UNL     1      -6.800  12.258  18.287  0.00  0.00    -0.060 NA
BRANCH  14  16
ATOM     16  C   UNL     1      -4.743  11.487  17.249  0.00  0.00    +0.067 A 
ATOM     17  C   UNL     1      -4.522  10.127  16.990  0.00  0.00    +0.028 A 
ATOM     18  C   UNL     1      -3.754   9.741  15.888  0.00  0.00    +0.002 A 
ATOM     19  C   UNL     1      -3.208  10.704  15.042  0.00  0.00    +0.000 A 
ATOM     20  C   UNL     1      -3.432  12.057  15.289  0.00  0.00    +0.002 A 
ATOM     21  C   UNL     1      -4.198  12.451  16.389  0.00  0.00    +0.028 A 
ENDBRANCH  14  16
ENDBRANCH  10  12
ENDBRANCH   9  10
ENDBRANCH   5   9
ENDBRANCH   4   7
ENDBRANCH   1   4
BRANCH   1  22
ATOM     22  C   UNL     1      -3.573  12.138  26.608  0.00  0.00    +0.175 C 
BRANCH  22  23
ATOM     23  C   UNL     1      -3.360  10.942  27.547  0.00  0.00    +0.176 C 
ATOM     24  O   UNL     1      -3.999   9.782  26.946  0.00  0.00    -0.332 OA
ATOM     25  C   UNL     1      -3.808   8.514  27.655  0.00  0.00    +0.277 C 
ATOM     26  C   UNL     1      -4.250   8.648  29.133  0.00  0.00    +0.110 C 
ATOM     27  C   UNL     1      -3.620   9.886  29.806  0.00  0.00    +0.143 C 
ATOM     28  C   UNL     1      -3.877  11.148  28.982  0.00  0.00    +0.133 C 
BRANCH  28  29
ATOM     29  N   UNL     1      -3.199  12.305  29.588  0.00  0.00    -0.308 N 
ATOM     30  H   UNL     1      -2.189  12.303  29.606  0.00  0.00    +0.149 HD
ATOM     31  C   UNL     1      -3.831  13.358  30.114  0.00  0.00    +0.210 C 
ATOM     32  C   UNL     1      -5.370  13.319  30.094  0.00  0.00    +0.109 C 
ATOM     33  O   UNL     1      -3.236  14.320  30.601  0.00  0.00    -0.276 OA
ENDBRANCH  28  29
BRANCH  25  34
ATOM     34  C   UNL     1      -2.331   8.072  27.597  0.00  0.00    +0.414 C 
ATOM     35  O   UNL     1      -1.652   8.306  26.597  0.00  0.00    -0.240 OA
ATOM     36  O   UNL     1      -1.817   7.483  28.549  0.00  0.00    -0.240 OA
ENDBRANCH  25  34
BRANCH  27  37
ATOM     37  O   UNL     1      -4.170  10.056  31.113  0.00  0.00    -0.390 OA
ATOM     38  H   UNL     1      -4.943  10.623  31.064  0.00  0.00    +0.210 HD
ENDBRANCH  27  37
BRANCH  25  39
ATOM     39  O   UNL     1      -4.642   7.512  27.017  0.00  0.00    -0.343 OA
ATOM     40  C   UNL     1      -6.061   7.633  27.291  0.00  0.00    +0.198 C 
ENDBRANCH  25  39
ENDBRANCH  22  23
BRANCH  22  41
ATOM     41  O   UNL     1      -4.926  12.624  26.722  0.00  0.00    -0.387 OA
ATOM     42  H   UNL     1      -5.527  11.997  26.313  0.00  0.00    +0.210 HD
ENDBRANCH  22  41
ENDBRANCH   1  22
TORSDOF 14
