REMARK VINA RESULT:    -5.142      4.326     10.768
REMARK INTER + INTRA:         -12.211
REMARK INTER:                  -8.970
REMARK INTRA:                  -3.241
REMARK UNBOUND:                -2.711
REMARK  Name = lig_assembled_36.pdb
REMARK  18 active torsions:
REMARK  status: ('A' for Active; 'I' for Inactive)
REMARK    1  A    between atoms: _2  and  _10
REMARK    2  A    between atoms: _5  and  _21
REMARK    3  A    between atoms: _7  and  _8
REMARK    4  A    between atoms: _7  and  _21
REMARK    5  A    between atoms: _10  and  _11
REMARK    6  A    between atoms: _14  and  _15
REMARK    7  A    between atoms: _17  and  _37
REMARK    8  A    between atoms: _19  and  _25
REMARK    9  A    between atoms: _20  and  _24
REMARK   10  A    between atoms: _24  and  _25
REMARK   11  A    between atoms: _27  and  _28
REMARK   12  A    between atoms: _29  and  _30
REMARK   13  A    between atoms: _31  and  _33
REMARK   14  A    between atoms: _33  and  _34
REMARK   15  A    between atoms: _33  and  _35
REMARK   16  A    between atoms: _35  and  _36
REMARK   17  A    between atoms: _35  and  _37
REMARK   18  A    between atoms: _38  and  _40
REMARK                            x       y       z     vdW  Elec       q    Type
REMARK                         _______ _______ _______ _____ _____    ______ ____
ROOT
ATOM      1  C   UNL     1      -5.186   7.469  25.218  0.00  0.00    +0.163 C 
ENDROOT
BRANCH   1   2
ATOM      2  O   UNL     1      -5.721   7.502  26.551  0.00  0.00    -0.388 OA
ATOM      3  H   UNL     1      -6.482   6.919  26.606  0.00  0.00    +0.210 HD
ENDBRANCH   1   2
BRANCH   1   4
ATOM      4  C   UNL     1      -5.136   8.882  24.610  0.00  0.00    +0.175 C 
BRANCH   4   5
ATOM      5  C   UNL     1      -3.927   9.684  25.111  0.00  0.00    +0.176 C 
ATOM      6  O   UNL     1      -4.135   9.975  26.520  0.00  0.00    -0.332 OA
ATOM      7  C   UNL     1      -3.025  10.650  27.200  0.00  0.00    +0.277 C 
ATOM      8  C   UNL     1      -2.640  11.948  26.449  0.00  0.00    +0.110 C 
ATOM      9  C   UNL     1      -2.439  11.695  24.940  0.00  0.00    +0.143 C 
ATOM     10  C   UNL     1      -3.652  10.986  24.336  0.00  0.00    +0.133 C 
BRANCH  10  11
ATOM     11  N   UNL     1      -3.412  10.673  22.918  0.00  0.00    -0.308 N 
ATOM     12  H   UNL     1      -2.658  10.038  22.696  0.00  0.00    +0.149 HD
ATOM     13  C   UNL     1      -4.127  11.172  21.906  0.00  0.00    +0.210 C 
ATOM     14  C   UNL     1      -5.252  12.157  22.275  0.00  0.00    +0.109 C 
ATOM     15  O   UNL     1      -3.913  10.880  20.729  0.00  0.00    -0.276 OA
ENDBRANCH  10  11
BRANCH   7  16
ATOM     16  C   UNL     1      -1.795   9.723  27.290  0.00  0.00    +0.414 C 
ATOM     17  O   UNL     1      -1.693   8.917  28.214  0.00  0.00    -0.240 OA
ATOM     18  O   UNL     1      -0.905   9.781  26.440  0.00  0.00    -0.240 OA
ENDBRANCH   7  16
BRANCH   7  19
ATOM     19  O   UNL     1      -3.466  11.008  28.535  0.00  0.00    -0.343 OA
ATOM     20  C   UNL     1      -4.816  11.533  28.613  0.00  0.00    +0.198 C 
ENDBRANCH   7  19
BRANCH   9  21
ATOM     21  O   UNL     1      -2.236  12.938  24.265  0.00  0.00    -0.390 OA
ATOM     22  H   UNL     1      -1.852  13.573  24.874  0.00  0.00    +0.210 HD
ENDBRANCH   9  21
ENDBRANCH   4   5
BRANCH   4  23
ATOM     23  O   UNL     1      -6.358   9.590  24.901  0.00  0.00    -0.387 OA
ATOM     24  H   UNL     1      -6.515   9.582  25.848  0.00  0.00    +0.210 HD
ENDBRANCH   4  23
ENDBRANCH   1   4
BRANCH   1  25
ATOM     25  C   UNL     1      -3.782   6.872  25.235  0.00  0.00    +0.141 C 
BRANCH  25  28
ATOM     26  C   UNL     1      -2.248   5.867  26.891  0.00  0.00    +0.401 C 
ATOM     27  O   UNL     1      -1.558   5.295  26.044  0.00  0.00    -0.226 OA
ATOM     28  N   UNL     1      -3.310   6.621  26.602  0.00  0.00    -0.279 N 
ATOM     29  H   UNL     1      -3.819   7.042  27.367  0.00  0.00    +0.152 HD
BRANCH  26  30
ATOM     30  O   UNL     1      -1.910   5.726  28.273  0.00  0.00    -0.444 OA
BRANCH  30  31
ATOM     31  C   UNL     1      -3.080   5.378  29.018  0.00  0.00    +0.292 C 
BRANCH  31  33
ATOM     32  N   UNL     1      -4.493   7.391  29.312  0.00  0.00    -0.131 NA
ATOM     33  C   UNL     1      -3.547   6.533  29.807  0.00  0.00    +0.120 A 
ATOM     34  C   UNL     1      -3.192   6.935  31.075  0.00  0.00    +0.137 A 
ATOM     35  N   UNL     1      -4.027   7.984  31.327  0.00  0.00    -0.247 N 
ATOM     36  N   UNL     1      -4.767   8.290  30.246  0.00  0.00    -0.065 NA
BRANCH  35  37
ATOM     37  C   UNL     1      -4.183   8.723  32.565  0.00  0.00    +0.180 C 
BRANCH  37  38
ATOM     38  C   UNL     1      -4.011  10.208  32.343  0.00  0.00    -0.026 A 
ATOM     39  C   UNL     1      -5.108  11.079  32.418  0.00  0.00    +0.007 A 
ATOM     40  C   UNL     1      -4.940  12.453  32.216  0.00  0.00    +0.019 A 
ATOM     41  C   UNL     1      -3.673  12.973  31.931  0.00  0.00    +0.052 A 
ATOM     42  C   UNL     1      -2.580  12.109  31.831  0.00  0.00    +0.019 A 
ATOM     43  C   UNL     1      -2.748  10.735  32.031  0.00  0.00    +0.007 A 
BRANCH  41  44
ATOM     44  C   UNL     1      -3.498  14.385  31.745  0.00  0.00    +0.099 C 
ATOM     45  N   UNL     1      -3.350  15.527  31.604  0.00  0.00    -0.191 NA
ENDBRANCH  41  44
ENDBRANCH  37  38
ENDBRANCH  35  37
ENDBRANCH  31  33
ENDBRANCH  30  31
ENDBRANCH  26  30
ENDBRANCH  25  28
ENDBRANCH   1  25
TORSDOF 16
