REMARK VINA RESULT:    -5.002      3.055      7.767
REMARK INTER + INTRA:         -11.184
REMARK INTER:                  -8.499
REMARK INTRA:                  -2.685
REMARK UNBOUND:                -2.233
REMARK  Name = lig_assembled_61.pdb
REMARK  17 active torsions:
REMARK  status: ('A' for Active; 'I' for Inactive)
REMARK    1  A    between atoms: _2  and  _9
REMARK    2  A    between atoms: _4  and  _17
REMARK    3  A    between atoms: _6  and  _7
REMARK    4  A    between atoms: _6  and  _17
REMARK    5  A    between atoms: _9  and  _10
REMARK    6  A    between atoms: _13  and  _33
REMARK    7  A    between atoms: _15  and  _21
REMARK    8  A    between atoms: _16  and  _20
REMARK    9  A    between atoms: _20  and  _21
REMARK   10  A    between atoms: _23  and  _24
REMARK   11  A    between atoms: _25  and  _26
REMARK   12  A    between atoms: _27  and  _29
REMARK   13  A    between atoms: _29  and  _30
REMARK   14  A    between atoms: _29  and  _31
REMARK   15  A    between atoms: _31  and  _32
REMARK   16  A    between atoms: _31  and  _33
REMARK   17  A    between atoms: _34  and  _36
REMARK                            x       y       z     vdW  Elec       q    Type
REMARK                         _______ _______ _______ _____ _____    ______ ____
ROOT
ATOM      1  C   UNL     1      -2.315   9.766  26.995  0.00  0.00    +0.163 C 
ENDROOT
BRANCH   1   2
ATOM      2  O   UNL     1      -1.104   9.870  26.230  0.00  0.00    -0.388 OA
ATOM      3  H   UNL     1      -0.583   9.072  26.344  0.00  0.00    +0.210 HD
ENDBRANCH   1   2
BRANCH   1   4
ATOM      4  C   UNL     1      -2.001   9.280  28.406  0.00  0.00    +0.141 C 
BRANCH   4   7
ATOM      5  C   UNL     1      -3.584   9.538  30.286  0.00  0.00    +0.401 C 
ATOM      6  O   UNL     1      -3.897   8.345  30.309  0.00  0.00    -0.226 OA
ATOM      7  N   UNL     1      -2.711  10.063  29.426  0.00  0.00    -0.279 N 
ATOM      8  H   UNL     1      -2.527  11.055  29.479  0.00  0.00    +0.152 HD
BRANCH   5   9
ATOM      9  O   UNL     1      -4.186  10.432  31.226  0.00  0.00    -0.444 OA
BRANCH   9  10
ATOM     10  C   UNL     1      -3.274  10.681  32.299  0.00  0.00    +0.292 C 
BRANCH  10  12
ATOM     11  N   UNL     1      -1.717  12.605  32.314  0.00  0.00    -0.131 NA
ATOM     12  C   UNL     1      -2.997  12.125  32.415  0.00  0.00    +0.120 A 
ATOM     13  C   UNL     1      -3.860  13.178  32.624  0.00  0.00    +0.137 A 
ATOM     14  N   UNL     1      -3.038  14.264  32.699  0.00  0.00    -0.247 N 
ATOM     15  N   UNL     1      -1.756  13.922  32.470  0.00  0.00    -0.065 NA
BRANCH  14  16
ATOM     16  C   UNL     1      -3.398  15.650  32.943  0.00  0.00    +0.180 C 
BRANCH  16  17
ATOM     17  C   UNL     1      -4.548  16.088  32.081  0.00  0.00    -0.019 A 
ATOM     18  C   UNL     1      -4.474  16.282  30.660  0.00  0.00    +0.013 A 
ATOM     19  C   UNL     1      -5.662  16.725  30.118  0.00  0.00    +0.045 A 
ATOM     20  S   UNL     1      -6.879  16.899  31.302  0.00  0.00    -0.105 S 
ATOM     21  C   UNL     1      -5.818  16.396  32.543  0.00  0.00    +0.050 A 
ENDBRANCH  16  17
ENDBRANCH  14  16
ENDBRANCH  10  12
ENDBRANCH   9  10
ENDBRANCH   5   9
ENDBRANCH   4   7
ENDBRANCH   1   4
BRANCH   1  22
ATOM     22  C   UNL     1      -3.307   8.798  26.327  0.00  0.00    +0.175 C 
BRANCH  22  23
ATOM     23  C   UNL     1      -4.133   9.484  25.229  0.00  0.00    +0.176 C 
ATOM     24  O   UNL     1      -3.249   9.754  24.107  0.00  0.00    -0.332 OA
ATOM     25  C   UNL     1      -3.891  10.316  22.915  0.00  0.00    +0.277 C 
ATOM     26  C   UNL     1      -4.681  11.597  23.279  0.00  0.00    +0.110 C 
ATOM     27  C   UNL     1      -5.612  11.367  24.488  0.00  0.00    +0.143 C 
ATOM     28  C   UNL     1      -4.842  10.778  25.670  0.00  0.00    +0.133 C 
BRANCH  28  29
ATOM     29  N   UNL     1      -5.755  10.483  26.785  0.00  0.00    -0.308 N 
ATOM     30  H   UNL     1      -6.387   9.701  26.683  0.00  0.00    +0.149 HD
ATOM     31  C   UNL     1      -5.804  11.182  27.923  0.00  0.00    +0.210 C 
ATOM     32  C   UNL     1      -4.847  12.383  28.036  0.00  0.00    +0.109 C 
ATOM     33  O   UNL     1      -6.570  10.903  28.846  0.00  0.00    -0.276 OA
ENDBRANCH  28  29
BRANCH  25  34
ATOM     34  C   UNL     1      -4.844   9.288  22.271  0.00  0.00    +0.414 C 
ATOM     35  O   UNL     1      -4.499   8.113  22.151  0.00  0.00    -0.240 OA
ATOM     36  O   UNL     1      -5.957   9.632  21.872  0.00  0.00    -0.240 OA
ENDBRANCH  25  34
BRANCH  25  37
ATOM     37  O   UNL     1      -2.849  10.674  21.970  0.00  0.00    -0.343 OA
ATOM     38  C   UNL     1      -3.151  11.817  21.131  0.00  0.00    +0.198 C 
ENDBRANCH  25  37
BRANCH  27  39
ATOM     39  O   UNL     1      -6.204  12.606  24.882  0.00  0.00    -0.390 OA
ATOM     40  H   UNL     1      -6.530  12.534  25.782  0.00  0.00    +0.210 HD
ENDBRANCH  27  39
ENDBRANCH  22  23
BRANCH  22  41
ATOM     41  O   UNL     1      -4.180   8.219  27.317  0.00  0.00    -0.387 OA
ATOM     42  H   UNL     1      -4.152   7.262  27.248  0.00  0.00    +0.210 HD
ENDBRANCH  22  41
ENDBRANCH   1  22
TORSDOF 15
