REMARK VINA RESULT:    -4.600      5.041     11.238
REMARK INTER + INTRA:         -10.466
REMARK INTER:                  -7.833
REMARK INTRA:                  -2.633
REMARK UNBOUND:                -2.505
REMARK  Name = lig_assembled_3.pdb
REMARK  16 active torsions:
REMARK  status: ('A' for Active; 'I' for Inactive)
REMARK    1  A    between atoms: _2  and  _9
REMARK    2  A    between atoms: _4  and  _18
REMARK    3  A    between atoms: _6  and  _7
REMARK    4  A    between atoms: _6  and  _18
REMARK    5  A    between atoms: _14  and  _34
REMARK    6  A    between atoms: _16  and  _22
REMARK    7  A    between atoms: _17  and  _21
REMARK    8  A    between atoms: _21  and  _22
REMARK    9  A    between atoms: _24  and  _25
REMARK   10  A    between atoms: _26  and  _27
REMARK   11  A    between atoms: _28  and  _30
REMARK   12  A    between atoms: _30  and  _31
REMARK   13  A    between atoms: _30  and  _32
REMARK   14  A    between atoms: _32  and  _33
REMARK   15  A    between atoms: _32  and  _34
REMARK   16  A    between atoms: _35  and  _37
REMARK                            x       y       z     vdW  Elec       q    Type
REMARK                         _______ _______ _______ _____ _____    ______ ____
ROOT
ATOM      1  C   UNL     1      -6.491   9.196  23.373  0.00  0.00    +0.163 C 
ENDROOT
BRANCH   1   2
ATOM      2  O   UNL     1      -7.165   9.278  24.640  0.00  0.00    -0.388 OA
ATOM      3  H   UNL     1      -6.735   9.937  25.190  0.00  0.00    +0.210 HD
ENDBRANCH   1   2
BRANCH   1   4
ATOM      4  C   UNL     1      -7.370   8.469  22.360  0.00  0.00    +0.141 C 
BRANCH   4   7
ATOM      5  C   UNL     1      -7.019   9.127  20.005  0.00  0.00    +0.401 C 
ATOM      6  O   UNL     1      -6.154   8.273  19.797  0.00  0.00    -0.226 OA
ATOM      7  N   UNL     1      -7.636   9.293  21.175  0.00  0.00    -0.279 N 
ATOM      8  H   UNL     1      -8.326  10.028  21.251  0.00  0.00    +0.152 HD
BRANCH   5   9
ATOM      9  O   UNL     1      -7.397  10.005  18.942  0.00  0.00    -0.444 OA
BRANCH   9  10
ATOM     10  C   UNL     1      -6.892   9.502  17.702  0.00  0.00    +0.292 C 
BRANCH  10  12
ATOM     11  N   UNL     1      -6.170  11.851  17.425  0.00  0.00    -0.131 NA
ATOM     12  C   UNL     1      -6.179  10.565  16.969  0.00  0.00    +0.121 A 
ATOM     13  C   UNL     1      -5.446  10.494  15.807  0.00  0.00    +0.143 A 
ATOM     14  N   UNL     1      -4.978  11.772  15.601  0.00  0.00    -0.220 N 
ATOM     15  N   UNL     1      -5.444  12.579  16.587  0.00  0.00    -0.060 NA
BRANCH  14  16
ATOM     16  C   UNL     1      -4.129  12.252  14.570  0.00  0.00    +0.067 A 
ATOM     17  C   UNL     1      -3.454  11.364  13.721  0.00  0.00    +0.028 A 
ATOM     18  C   UNL     1      -2.598  11.856  12.732  0.00  0.00    +0.002 A 
ATOM     19  C   UNL     1      -2.415  13.229  12.583  0.00  0.00    +0.000 A 
ATOM     20  C   UNL     1      -3.091  14.117  13.418  0.00  0.00    +0.002 A 
ATOM     21  C   UNL     1      -3.947  13.634  14.409  0.00  0.00    +0.028 A 
ENDBRANCH  14  16
ENDBRANCH  10  12
ENDBRANCH   9  10
ENDBRANCH   5   9
ENDBRANCH   4   7
ENDBRANCH   1   4
BRANCH   1  22
ATOM     22  C   UNL     1      -5.148   8.459  23.511  0.00  0.00    +0.175 C 
BRANCH  22  23
ATOM     23  C   UNL     1      -4.071   9.337  24.165  0.00  0.00    +0.176 C 
ATOM     24  O   UNL     1      -4.384   9.449  25.581  0.00  0.00    -0.332 OA
ATOM     25  C   UNL     1      -3.400  10.170  26.393  0.00  0.00    +0.277 C 
ATOM     26  C   UNL     1      -3.138  11.577  25.803  0.00  0.00    +0.110 C 
ATOM     27  C   UNL     1      -2.832  11.513  24.292  0.00  0.00    +0.143 C 
ATOM     28  C   UNL     1      -3.918  10.738  23.544  0.00  0.00    +0.133 C 
BRANCH  28  29
ATOM     29  N   UNL     1      -3.571  10.609  22.120  0.00  0.00    -0.308 N 
ATOM     30  H   UNL     1      -2.796  10.008  21.876  0.00  0.00    +0.149 HD
ATOM     31  C   UNL     1      -4.213  11.234  21.130  0.00  0.00    +0.210 C 
ATOM     32  C   UNL     1      -5.373  12.162  21.537  0.00  0.00    +0.109 C 
ATOM     33  O   UNL     1      -3.910  11.095  19.944  0.00  0.00    -0.276 OA
ENDBRANCH  28  29
BRANCH  25  34
ATOM     34  C   UNL     1      -2.073   9.386  26.467  0.00  0.00    +0.414 C 
ATOM     35  O   UNL     1      -2.077   8.156  26.452  0.00  0.00    -0.240 OA
ATOM     36  O   UNL     1      -0.998   9.984  26.541  0.00  0.00    -0.240 OA
ENDBRANCH  25  34
BRANCH  27  37
ATOM     37  O   UNL     1      -2.747  12.836  23.761  0.00  0.00    -0.390 OA
ATOM     38  H   UNL     1      -1.859  12.993  23.433  0.00  0.00    +0.210 HD
ENDBRANCH  27  37
BRANCH  25  39
ATOM     39  O   UNL     1      -3.948  10.328  27.727  0.00  0.00    -0.343 OA
ATOM     40  C   UNL     1      -3.978  11.692  28.219  0.00  0.00    +0.198 C 
ENDBRANCH  25  39
ENDBRANCH  22  23
BRANCH  22  41
ATOM     41  O   UNL     1      -4.698   8.000  22.221  0.00  0.00    -0.387 OA
ATOM     42  H   UNL     1      -4.230   7.168  22.322  0.00  0.00    +0.210 HD
ENDBRANCH  22  41
ENDBRANCH   1  22
TORSDOF 14
