REMARK VINA RESULT:    -3.911      3.787      6.554
REMARK INTER + INTRA:         -10.834
REMARK INTER:                  -8.049
REMARK INTRA:                  -2.785
REMARK UNBOUND:                -3.721
REMARK  Name = lig_assembled_35.pdb
REMARK  19 active torsions:
REMARK  status: ('A' for Active; 'I' for Inactive)
REMARK    1  A    between atoms: _2  and  _9
REMARK    2  A    between atoms: _4  and  _17
REMARK    3  A    between atoms: _5  and  _9
REMARK    4  A    between atoms: _5  and  _11
REMARK    5  A    between atoms: _6  and  _7
REMARK    6  A    between atoms: _6  and  _17
REMARK    7  A    between atoms: _9  and  _10
REMARK    8  A    between atoms: _13  and  _33
REMARK    9  A    between atoms: _15  and  _21
REMARK   10  A    between atoms: _16  and  _20
REMARK   11  A    between atoms: _20  and  _21
REMARK   12  A    between atoms: _23  and  _24
REMARK   13  A    between atoms: _25  and  _26
REMARK   14  A    between atoms: _27  and  _29
REMARK   15  A    between atoms: _29  and  _30
REMARK   16  A    between atoms: _29  and  _31
REMARK   17  A    between atoms: _31  and  _32
REMARK   18  A    between atoms: _31  and  _33
REMARK   19  A    between atoms: _34  and  _36
REMARK                            x       y       z     vdW  Elec       q    Type
REMARK                         _______ _______ _______ _____ _____    ______ ____
ROOT
ATOM      1  C   UNL     1      -6.436   9.339  23.427  0.00  0.00    +0.163 C 
ENDROOT
BRANCH   1   2
ATOM      2  O   UNL     1      -6.934   9.581  24.753  0.00  0.00    -0.388 OA
ATOM      3  H   UNL     1      -6.276   9.306  25.397  0.00  0.00    +0.210 HD
ENDBRANCH   1   2
BRANCH   1   4
ATOM      4  C   UNL     1      -5.082   8.612  23.471  0.00  0.00    +0.175 C 
BRANCH   4   5
ATOM      5  C   UNL     1      -4.004   9.441  24.184  0.00  0.00    +0.176 C 
ATOM      6  O   UNL     1      -4.323   9.465  25.603  0.00  0.00    -0.332 OA
ATOM      7  C   UNL     1      -3.338  10.127  26.463  0.00  0.00    +0.277 C 
ATOM      8  C   UNL     1      -3.066  11.568  25.964  0.00  0.00    +0.110 C 
ATOM      9  C   UNL     1      -2.753  11.597  24.453  0.00  0.00    +0.143 C 
ATOM     10  C   UNL     1      -3.839  10.877  23.654  0.00  0.00    +0.133 C 
BRANCH  10  11
ATOM     11  N   UNL     1      -3.486  10.836  22.226  0.00  0.00    -0.308 N 
ATOM     12  H   UNL     1      -2.700  10.264  21.951  0.00  0.00    +0.149 HD
ATOM     13  C   UNL     1      -4.136  11.506  21.270  0.00  0.00    +0.210 C 
ATOM     14  C   UNL     1      -5.312  12.390  21.725  0.00  0.00    +0.109 C 
ATOM     15  O   UNL     1      -3.827  11.441  20.080  0.00  0.00    -0.276 OA
ENDBRANCH  10  11
BRANCH   7  16
ATOM     16  C   UNL     1      -2.016   9.333  26.494  0.00  0.00    +0.414 C 
ATOM     17  O   UNL     1      -0.938   9.925  26.542  0.00  0.00    -0.240 OA
ATOM     18  O   UNL     1      -2.027   8.102  26.470  0.00  0.00    -0.240 OA
ENDBRANCH   7  16
BRANCH   7  19
ATOM     19  O   UNL     1      -3.892  10.205  27.802  0.00  0.00    -0.343 OA
ATOM     20  C   UNL     1      -5.340  10.163  27.869  0.00  0.00    +0.198 C 
ENDBRANCH   7  19
BRANCH   9  21
ATOM     21  O   UNL     1      -2.658  12.950  24.007  0.00  0.00    -0.390 OA
ATOM     22  H   UNL     1      -1.735  13.185  23.888  0.00  0.00    +0.210 HD
ENDBRANCH   9  21
ENDBRANCH   4   5
BRANCH   4  23
ATOM     23  O   UNL     1      -4.652   8.281  22.136  0.00  0.00    -0.387 OA
ATOM     24  H   UNL     1      -5.311   8.578  21.504  0.00  0.00    +0.210 HD
ENDBRANCH   4  23
ENDBRANCH   1   4
BRANCH   1  25
ATOM     25  C   UNL     1      -7.439   8.503  22.639  0.00  0.00    +0.141 C 
BRANCH  25  28
ATOM     26  C   UNL     1      -7.400   8.833  20.190  0.00  0.00    +0.401 C 
ATOM     27  O   UNL     1      -6.579   7.936  19.987  0.00  0.00    -0.226 OA
ATOM     28  N   UNL     1      -7.853   9.170  21.398  0.00  0.00    -0.279 N 
ATOM     29  H   UNL     1      -8.519   9.927  21.464  0.00  0.00    +0.152 HD
BRANCH  26  30
ATOM     30  O   UNL     1      -7.909   9.574  19.078  0.00  0.00    -0.444 OA
BRANCH  30  31
ATOM     31  C   UNL     1      -7.275  10.855  19.027  0.00  0.00    +0.292 C 
BRANCH  31  33
ATOM     32  N   UNL     1      -6.027  12.184  17.353  0.00  0.00    -0.131 NA
ATOM     33  C   UNL     1      -6.435  10.962  17.818  0.00  0.00    +0.120 A 
ATOM     34  C   UNL     1      -5.941   9.978  16.990  0.00  0.00    +0.138 A 
ATOM     35  N   UNL     1      -5.228  10.665  16.051  0.00  0.00    -0.238 N 
ATOM     36  N   UNL     1      -5.302  11.990  16.261  0.00  0.00    -0.065 NA
BRANCH  35  37
ATOM     37  C   UNL     1      -4.480  10.170  14.912  0.00  0.00    +0.214 C 
ATOM     38  C   UNL     1      -5.030  10.739  13.607  0.00  0.00    +0.045 C 
BRANCH  37  39
ATOM     39  C   UNL     1      -2.996  10.430  15.068  0.00  0.00    +0.329 C 
ATOM     40  O   UNL     1      -2.147   9.555  15.169  0.00  0.00    -0.249 OA
BRANCH  39  41
ATOM     41  O   UNL     1      -2.660  11.743  15.118  0.00  0.00    -0.479 OA
ATOM     42  H   UNL     1      -3.153  12.332  14.510  0.00  0.00    +0.295 HD
ENDBRANCH  39  41
ENDBRANCH  37  39
ENDBRANCH  35  37
ENDBRANCH  31  33
ENDBRANCH  30  31
ENDBRANCH  26  30
ENDBRANCH  25  28
ENDBRANCH   1  25
TORSDOF 16
