REMARK VINA RESULT:    -5.277      3.973      6.886
REMARK INTER + INTRA:         -11.130
REMARK INTER:                  -9.140
REMARK INTRA:                  -1.990
REMARK UNBOUND:                -1.997
REMARK  Name = lig_assembled_57.pdb
REMARK  17 active torsions:
REMARK  status: ('A' for Active; 'I' for Inactive)
REMARK    1  A    between atoms: _2  and  _10
REMARK    2  A    between atoms: _3  and  _13
REMARK    3  A    between atoms: _5  and  _19
REMARK    4  A    between atoms: _7  and  _8
REMARK    5  A    between atoms: _7  and  _19
REMARK    6  A    between atoms: _15  and  _35
REMARK    7  A    between atoms: _17  and  _23
REMARK    8  A    between atoms: _18  and  _22
REMARK    9  A    between atoms: _22  and  _23
REMARK   10  A    between atoms: _25  and  _26
REMARK   11  A    between atoms: _27  and  _28
REMARK   12  A    between atoms: _29  and  _31
REMARK   13  A    between atoms: _31  and  _32
REMARK   14  A    between atoms: _31  and  _33
REMARK   15  A    between atoms: _33  and  _34
REMARK   16  A    between atoms: _33  and  _35
REMARK   17  A    between atoms: _36  and  _38
REMARK                            x       y       z     vdW  Elec       q    Type
REMARK                         _______ _______ _______ _____ _____    ______ ____
ROOT
ATOM      1  C   UNL     1      -3.274  11.825  25.085  0.00  0.00    +0.163 C 
ENDROOT
BRANCH   1   2
ATOM      2  O   UNL     1      -2.102  11.004  24.952  0.00  0.00    -0.388 OA
ATOM      3  H   UNL     1      -1.878  10.624  25.804  0.00  0.00    +0.210 HD
ENDBRANCH   1   2
BRANCH   1   4
ATOM      4  C   UNL     1      -3.095  13.121  24.302  0.00  0.00    +0.141 C 
BRANCH   4   7
ATOM      5  C   UNL     1      -3.776  12.354  22.054  0.00  0.00    +0.401 C 
ATOM      6  O   UNL     1      -2.887  11.504  21.972  0.00  0.00    -0.226 OA
ATOM      7  N   UNL     1      -3.943  13.159  23.104  0.00  0.00    -0.279 N 
ATOM      8  H   UNL     1      -4.696  13.832  23.074  0.00  0.00    +0.152 HD
BRANCH   5   9
ATOM      9  O   UNL     1      -4.692  12.508  20.967  0.00  0.00    -0.444 OA
BRANCH   9  10
ATOM     10  C   UNL     1      -5.513  11.341  20.864  0.00  0.00    +0.292 C 
BRANCH  10  12
ATOM     11  N   UNL     1      -4.942   9.328  19.553  0.00  0.00    -0.131 NA
ATOM     12  C   UNL     1      -5.257  10.656  19.584  0.00  0.00    +0.120 A 
ATOM     13  C   UNL     1      -5.302  11.139  18.293  0.00  0.00    +0.137 A 
ATOM     14  N   UNL     1      -5.094  10.037  17.518  0.00  0.00    -0.248 N 
ATOM     15  N   UNL     1      -4.806   8.967  18.288  0.00  0.00    -0.065 NA
BRANCH  14  16
ATOM     16  C   UNL     1      -5.198   9.847  16.076  0.00  0.00    +0.111 C 
ATOM     17  C   UNL     1      -5.138  11.196  15.344  0.00  0.00    +0.042 C 
ATOM     18  C   UNL     1      -3.712  11.743  15.344  0.00  0.00    +0.086 C 
ATOM     19  N   UNL     1      -2.752  10.835  14.706  0.00  0.00    -0.305 NA
ATOM     20  C   UNL     1      -2.780   9.491  15.284  0.00  0.00    +0.086 C 
ATOM     21  C   UNL     1      -2.875  10.830  13.252  0.00  0.00    +0.104 C 
ATOM     22  C   UNL     1      -4.181   8.883  15.443  0.00  0.00    +0.042 C 
ENDBRANCH  14  16
ENDBRANCH  10  12
ENDBRANCH   9  10
ENDBRANCH   5   9
ENDBRANCH   4   7
ENDBRANCH   1   4
BRANCH   1  23
ATOM     23  C   UNL     1      -3.552  12.151  26.562  0.00  0.00    +0.175 C 
BRANCH  23  24
ATOM     24  C   UNL     1      -3.298  10.945  27.478  0.00  0.00    +0.176 C 
ATOM     25  O   UNL     1      -3.935   9.785  26.877  0.00  0.00    -0.332 OA
ATOM     26  C   UNL     1      -3.708   8.510  27.563  0.00  0.00    +0.277 C 
ATOM     27  C   UNL     1      -4.115   8.617  29.053  0.00  0.00    +0.110 C 
ATOM     28  C   UNL     1      -3.487   9.855  29.728  0.00  0.00    +0.143 C 
ATOM     29  C   UNL     1      -3.783  11.124  28.929  0.00  0.00    +0.133 C 
BRANCH  29  30
ATOM     30  N   UNL     1      -3.106  12.283  29.534  0.00  0.00    -0.308 N 
ATOM     31  H   UNL     1      -2.096  12.300  29.518  0.00  0.00    +0.149 HD
ATOM     32  C   UNL     1      -3.740  13.313  30.101  0.00  0.00    +0.210 C 
ATOM     33  C   UNL     1      -5.278  13.244  30.132  0.00  0.00    +0.109 C 
ATOM     34  O   UNL     1      -3.147  14.277  30.587  0.00  0.00    -0.276 OA
ENDBRANCH  29  30
BRANCH  26  35
ATOM     35  C   UNL     1      -2.226   8.091  27.463  0.00  0.00    +0.414 C 
ATOM     36  O   UNL     1      -1.715   7.403  28.345  0.00  0.00    -0.240 OA
ATOM     37  O   UNL     1      -1.543   8.441  26.500  0.00  0.00    -0.240 OA
ENDBRANCH  26  35
BRANCH  28  38
ATOM     38  O   UNL     1      -4.006   9.999  31.050  0.00  0.00    -0.390 OA
ATOM     39  H   UNL     1      -4.966  10.001  31.019  0.00  0.00    +0.210 HD
ENDBRANCH  28  38
BRANCH  26  40
ATOM     40  O   UNL     1      -4.543   7.505  26.932  0.00  0.00    -0.343 OA
ATOM     41  C   UNL     1      -5.248   7.952  25.746  0.00  0.00    +0.198 C 
ENDBRANCH  26  40
ENDBRANCH  23  24
BRANCH  23  42
ATOM     42  O   UNL     1      -4.906  12.619  26.721  0.00  0.00    -0.387 OA
ATOM     43  H   UNL     1      -4.897  13.545  26.975  0.00  0.00    +0.210 HD
ENDBRANCH  23  42
ENDBRANCH   1  23
TORSDOF 14
