REMARK VINA RESULT:    -6.169      0.000      0.000
REMARK INTER + INTRA:         -13.788
REMARK INTER:                 -10.630
REMARK INTRA:                  -3.158
REMARK UNBOUND:                -2.389
REMARK  Name = lig_assembled_92.pdb
REMARK  18 active torsions:
REMARK  status: ('A' for Active; 'I' for Inactive)
REMARK    1  A    between atoms: _2  and  _11
REMARK    2  A    between atoms: _3  and  _46
REMARK    3  A    between atoms: _6  and  _25
REMARK    4  A    between atoms: _8  and  _9
REMARK    5  A    between atoms: _8  and  _25
REMARK    6  A    between atoms: _14  and  _46
REMARK    7  A    between atoms: _21  and  _41
REMARK    8  A    between atoms: _23  and  _29
REMARK    9  A    between atoms: _24  and  _28
REMARK   10  A    between atoms: _28  and  _29
REMARK   11  A    between atoms: _31  and  _32
REMARK   12  A    between atoms: _33  and  _34
REMARK   13  A    between atoms: _35  and  _37
REMARK   14  A    between atoms: _37  and  _38
REMARK   15  A    between atoms: _37  and  _39
REMARK   16  A    between atoms: _39  and  _40
REMARK   17  A    between atoms: _39  and  _41
REMARK   18  A    between atoms: _42  and  _44
REMARK                            x       y       z     vdW  Elec       q    Type
REMARK                         _______ _______ _______ _____ _____    ______ ____
ROOT
ATOM      1  C   UNL     1      -3.951   6.783  23.383  0.00  0.00    +0.401 C 
ATOM      2  O   UNL     1      -3.448   7.343  22.406  0.00  0.00    -0.226 OA
ATOM      3  N   UNL     1      -5.252   6.812  23.671  0.00  0.00    -0.279 N 
ATOM      4  H   UNL     1      -5.571   6.314  24.490  0.00  0.00    +0.152 HD
ENDROOT
BRANCH   3   5
ATOM      5  C   UNL     1      -6.249   7.527  22.864  0.00  0.00    +0.141 C 
BRANCH   5   6
ATOM      6  C   UNL     1      -6.639   8.861  23.494  0.00  0.00    +0.163 C 
BRANCH   6   7
ATOM      7  O   UNL     1      -5.904   9.063  24.712  0.00  0.00    -0.388 OA
ATOM      8  H   UNL     1      -6.461   9.513  25.351  0.00  0.00    +0.210 HD
ENDBRANCH   6   7
BRANCH   6   9
ATOM      9  C   UNL     1      -6.371   9.999  22.494  0.00  0.00    +0.175 C 
BRANCH   9  10
ATOM     10  C   UNL     1      -5.032  10.701  22.763  0.00  0.00    +0.176 C 
ATOM     11  O   UNL     1      -5.212  11.586  23.902  0.00  0.00    -0.332 OA
ATOM     12  C   UNL     1      -4.002  12.267  24.373  0.00  0.00    +0.277 C 
ATOM     13  C   UNL     1      -3.328  13.038  23.212  0.00  0.00    +0.110 C 
ATOM     14  C   UNL     1      -3.145  12.146  21.966  0.00  0.00    +0.143 C 
ATOM     15  C   UNL     1      -4.464  11.486  21.565  0.00  0.00    +0.133 C 
BRANCH  15  16
ATOM     16  N   UNL     1      -4.259  10.571  20.431  0.00  0.00    -0.308 N 
ATOM     17  H   UNL     1      -3.628   9.793  20.561  0.00  0.00    +0.149 HD
ATOM     18  C   UNL     1      -4.851  10.703  19.241  0.00  0.00    +0.210 C 
ATOM     19  C   UNL     1      -5.787  11.914  19.067  0.00  0.00    +0.109 C 
ATOM     20  O   UNL     1      -4.672   9.913  18.314  0.00  0.00    -0.276 OA
ENDBRANCH  15  16
BRANCH  12  21
ATOM     21  C   UNL     1      -3.001  11.254  24.968  0.00  0.00    +0.414 C 
ATOM     22  O   UNL     1      -1.991  11.649  25.549  0.00  0.00    -0.240 OA
ATOM     23  O   UNL     1      -3.204  10.043  24.868  0.00  0.00    -0.240 OA
ENDBRANCH  12  21
BRANCH  14  24
ATOM     24  O   UNL     1      -2.663  12.934  20.877  0.00  0.00    -0.390 OA
ATOM     25  H   UNL     1      -2.515  12.370  20.114  0.00  0.00    +0.210 HD
ENDBRANCH  14  24
BRANCH  12  26
ATOM     26  O   UNL     1      -4.392  13.223  25.392  0.00  0.00    -0.343 OA
ATOM     27  C   UNL     1      -5.821  13.331  25.615  0.00  0.00    +0.198 C 
ENDBRANCH  12  26
ENDBRANCH   9  10
BRANCH   9  28
ATOM     28  O   UNL     1      -7.449  10.955  22.530  0.00  0.00    -0.387 OA
ATOM     29  H   UNL     1      -7.131  11.783  22.897  0.00  0.00    +0.210 HD
ENDBRANCH   9  28
ENDBRANCH   6   9
ENDBRANCH   5   6
ENDBRANCH   3   5
BRANCH   1  30
ATOM     30  O   UNL     1      -3.106   6.049  24.274  0.00  0.00    -0.444 OA
BRANCH  30  31
ATOM     31  C   UNL     1      -3.748   5.922  25.545  0.00  0.00    +0.292 C 
BRANCH  31  33
ATOM     32  N   UNL     1      -1.955   7.352  26.487  0.00  0.00    -0.131 NA
ATOM     33  C   UNL     1      -3.263   6.962  26.472  0.00  0.00    +0.121 A 
ATOM     34  C   UNL     1      -3.958   7.689  27.410  0.00  0.00    +0.143 A 
ATOM     35  N   UNL     1      -3.029   8.542  27.960  0.00  0.00    -0.220 N 
ATOM     36  N   UNL     1      -1.819   8.308  27.398  0.00  0.00    -0.060 NA
BRANCH  35  37
ATOM     37  C   UNL     1      -3.231   9.555  28.931  0.00  0.00    +0.067 A 
ATOM     38  C   UNL     1      -3.737  10.809  28.555  0.00  0.00    +0.030 A 
ATOM     39  C   UNL     1      -3.878  11.822  29.502  0.00  0.00    +0.031 A 
ATOM     40  C   UNL     1      -3.527  11.583  30.832  0.00  0.00    +0.109 A 
ATOM     41  C   UNL     1      -3.031  10.337  31.225  0.00  0.00    +0.031 A 
ATOM     42  C   UNL     1      -2.893   9.318  30.275  0.00  0.00    +0.030 A 
BRANCH  40  43
ATOM     43  S   UNL     1      -3.575  12.937  31.976  0.00  0.00    +0.074 S 
ATOM     44  O   UNL     1      -4.960  13.137  32.357  0.00  0.00    -0.150 OA
ATOM     45  O   UNL     1      -2.569  12.723  32.988  0.00  0.00    -0.150 OA
BRANCH  43  46
ATOM     46  N   UNL     1      -3.188  14.274  31.020  0.00  0.00    -0.194 N 
ATOM     47  H   UNL     1      -3.513  14.056  30.082  0.00  0.00    +0.176 HD
ATOM     48  C   UNL     1      -3.724  15.471  31.538  0.00  0.00    +0.177 A 
ATOM     49  S   UNL     1      -5.184  16.151  30.967  0.00  0.00    -0.059 S 
ATOM     50  C   UNL     1      -4.931  17.500  31.996  0.00  0.00    +0.068 A 
ATOM     51  C   UNL     1      -3.717  17.368  32.637  0.00  0.00    +0.120 A 
ATOM     52  N   UNL     1      -3.041  16.186  32.397  0.00  0.00    -0.232 NA
ENDBRANCH  43  46
ENDBRANCH  40  43
ENDBRANCH  35  37
ENDBRANCH  31  33
ENDBRANCH  30  31
ENDBRANCH   1  30
TORSDOF 16
