REMARK VINA RESULT:    -5.932      4.601     11.252
REMARK INTER + INTRA:         -12.742
REMARK INTER:                  -9.949
REMARK INTRA:                  -2.793
REMARK UNBOUND:                -1.954
REMARK  Name = lig_assembled_60.pdb
REMARK  18 active torsions:
REMARK  status: ('A' for Active; 'I' for Inactive)
REMARK    1  A    between atoms: _2  and  _10
REMARK    2  A    between atoms: _3  and  _41
REMARK    3  A    between atoms: _5  and  _21
REMARK    4  A    between atoms: _7  and  _8
REMARK    5  A    between atoms: _7  and  _21
REMARK    6  A    between atoms: _13  and  _41
REMARK    7  A    between atoms: _17  and  _37
REMARK    8  A    between atoms: _19  and  _25
REMARK    9  A    between atoms: _20  and  _24
REMARK   10  A    between atoms: _24  and  _25
REMARK   11  A    between atoms: _27  and  _28
REMARK   12  A    between atoms: _29  and  _30
REMARK   13  A    between atoms: _31  and  _33
REMARK   14  A    between atoms: _33  and  _34
REMARK   15  A    between atoms: _33  and  _35
REMARK   16  A    between atoms: _35  and  _36
REMARK   17  A    between atoms: _35  and  _37
REMARK   18  A    between atoms: _38  and  _40
REMARK                            x       y       z     vdW  Elec       q    Type
REMARK                         _______ _______ _______ _____ _____    ______ ____
ROOT
ATOM      1  C   UNL     1      -3.875  13.163  24.384  0.00  0.00    +0.141 C 
ENDROOT
BRANCH   1   4
ATOM      2  C   UNL     1      -5.270  13.662  22.406  0.00  0.00    +0.401 C 
ATOM      3  O   UNL     1      -4.400  14.333  21.845  0.00  0.00    -0.226 OA
ATOM      4  N   UNL     1      -5.112  13.083  23.597  0.00  0.00    -0.279 N 
ATOM      5  H   UNL     1      -5.887  12.560  23.980  0.00  0.00    +0.152 HD
BRANCH   2   6
ATOM      6  O   UNL     1      -6.533  13.483  21.761  0.00  0.00    -0.444 OA
BRANCH   6   7
ATOM      7  C   UNL     1      -6.806  12.086  21.624  0.00  0.00    +0.292 C 
BRANCH   7   9
ATOM      8  N   UNL     1      -5.351  10.330  20.660  0.00  0.00    -0.131 NA
ATOM      9  C   UNL     1      -6.015  11.515  20.519  0.00  0.00    +0.121 A 
ATOM     10  C   UNL     1      -5.811  11.994  19.245  0.00  0.00    +0.143 A 
ATOM     11  N   UNL     1      -5.038  11.040  18.625  0.00  0.00    -0.220 N 
ATOM     12  N   UNL     1      -4.753  10.053  19.509  0.00  0.00    -0.060 NA
BRANCH  11  13
ATOM     13  C   UNL     1      -4.604  10.993  17.274  0.00  0.00    +0.067 A 
ATOM     14  C   UNL     1      -4.213   9.777  16.691  0.00  0.00    +0.030 A 
ATOM     15  C   UNL     1      -3.722   9.753  15.385  0.00  0.00    +0.030 A 
ATOM     16  C   UNL     1      -3.634  10.940  14.654  0.00  0.00    +0.105 A 
ATOM     17  C   UNL     1      -4.036  12.154  15.218  0.00  0.00    +0.030 A 
ATOM     18  C   UNL     1      -4.528  12.179  16.526  0.00  0.00    +0.030 A 
BRANCH  16  19
ATOM     19  S   UNL     1      -2.938  10.907  13.029  0.00  0.00    +0.056 S 
ATOM     20  O   UNL     1      -1.853   9.954  12.994  0.00  0.00    -0.153 OA
ATOM     21  O   UNL     1      -4.007  10.903  12.057  0.00  0.00    -0.153 OA
BRANCH  19  22
ATOM     22  N   UNL     1      -2.227  12.423  12.932  0.00  0.00    -0.204 NA
ATOM     23  H   UNL     1      -2.136  12.700  11.955  0.00  0.00    +0.144 HD
ATOM     24  H   UNL     1      -1.345  12.424  13.445  0.00  0.00    +0.144 HD
ENDBRANCH  19  22
ENDBRANCH  16  19
ENDBRANCH  11  13
ENDBRANCH   7   9
ENDBRANCH   6   7
ENDBRANCH   2   6
ENDBRANCH   1   4
BRANCH   1  25
ATOM     25  C   UNL     1      -2.973  11.955  24.150  0.00  0.00    +0.163 C 
BRANCH  25  26
ATOM     26  O   UNL     1      -1.996  11.861  25.199  0.00  0.00    -0.388 OA
ATOM     27  H   UNL     1      -1.377  11.155  24.998  0.00  0.00    +0.210 HD
ENDBRANCH  25  26
BRANCH  25  28
ATOM     28  C   UNL     1      -3.831  10.680  24.080  0.00  0.00    +0.175 C 
BRANCH  28  29
ATOM     29  C   UNL     1      -3.823   9.906  25.406  0.00  0.00    +0.176 C 
ATOM     30  O   UNL     1      -2.851   8.831  25.292  0.00  0.00    -0.332 OA
ATOM     31  C   UNL     1      -2.629   8.044  26.508  0.00  0.00    +0.277 C 
ATOM     32  C   UNL     1      -3.970   7.481  27.040  0.00  0.00    +0.110 C 
ATOM     33  C   UNL     1      -5.046   8.582  27.149  0.00  0.00    +0.143 C 
ATOM     34  C   UNL     1      -5.192   9.339  25.829  0.00  0.00    +0.133 C 
BRANCH  34  35
ATOM     35  N   UNL     1      -6.157  10.441  25.971  0.00  0.00    -0.308 N 
ATOM     36  H   UNL     1      -5.970  11.144  26.673  0.00  0.00    +0.149 HD
ATOM     37  C   UNL     1      -7.263  10.572  25.234  0.00  0.00    +0.210 C 
ATOM     38  C   UNL     1      -7.532   9.471  24.192  0.00  0.00    +0.109 C 
ATOM     39  O   UNL     1      -8.046  11.514  25.365  0.00  0.00    -0.276 OA
ENDBRANCH  34  35
BRANCH  31  40
ATOM     40  C   UNL     1      -1.960   8.903  27.602  0.00  0.00    +0.414 C 
ATOM     41  O   UNL     1      -1.237   9.848  27.291  0.00  0.00    -0.240 OA
ATOM     42  O   UNL     1      -2.144   8.651  28.793  0.00  0.00    -0.240 OA
ENDBRANCH  31  40
BRANCH  33  43
ATOM     43  O   UNL     1      -6.301   7.995  27.497  0.00  0.00    -0.390 OA
ATOM     44  H   UNL     1      -6.168   7.334  28.180  0.00  0.00    +0.210 HD
ENDBRANCH  33  43
BRANCH  31  45
ATOM     45  O   UNL     1      -1.767   6.927  26.169  0.00  0.00    -0.343 OA
ATOM     46  C   UNL     1      -2.124   5.667  26.792  0.00  0.00    +0.198 C 
ENDBRANCH  31  45
ENDBRANCH  28  29
BRANCH  28  47
ATOM     47  O   UNL     1      -3.373   9.832  23.008  0.00  0.00    -0.387 OA
ATOM     48  H   UNL     1      -2.443   9.630  23.133  0.00  0.00    +0.210 HD
ENDBRANCH  28  47
ENDBRANCH  25  28
ENDBRANCH   1  25
TORSDOF 16
