REMARK VINA RESULT:    -4.854      6.522      9.308
REMARK INTER + INTRA:         -10.917
REMARK INTER:                  -9.166
REMARK INTRA:                  -1.751
REMARK UNBOUND:                -2.233
REMARK  Name = lig_assembled_61.pdb
REMARK  17 active torsions:
REMARK  status: ('A' for Active; 'I' for Inactive)
REMARK    1  A    between atoms: _2  and  _9
REMARK    2  A    between atoms: _4  and  _17
REMARK    3  A    between atoms: _6  and  _7
REMARK    4  A    between atoms: _6  and  _17
REMARK    5  A    between atoms: _9  and  _10
REMARK    6  A    between atoms: _13  and  _33
REMARK    7  A    between atoms: _15  and  _21
REMARK    8  A    between atoms: _16  and  _20
REMARK    9  A    between atoms: _20  and  _21
REMARK   10  A    between atoms: _23  and  _24
REMARK   11  A    between atoms: _25  and  _26
REMARK   12  A    between atoms: _27  and  _29
REMARK   13  A    between atoms: _29  and  _30
REMARK   14  A    between atoms: _29  and  _31
REMARK   15  A    between atoms: _31  and  _32
REMARK   16  A    between atoms: _31  and  _33
REMARK   17  A    between atoms: _34  and  _36
REMARK                            x       y       z     vdW  Elec       q    Type
REMARK                         _______ _______ _______ _____ _____    ______ ____
ROOT
ATOM      1  C   UNL     1      -4.754  11.334  21.069  0.00  0.00    +0.163 C 
ENDROOT
BRANCH   1   2
ATOM      2  O   UNL     1      -5.029   9.933  20.911  0.00  0.00    -0.388 OA
ATOM      3  H   UNL     1      -5.301   9.760  20.007  0.00  0.00    +0.210 HD
ENDBRANCH   1   2
BRANCH   1   4
ATOM      4  C   UNL     1      -4.711  12.015  19.705  0.00  0.00    +0.141 C 
BRANCH   4   7
ATOM      5  C   UNL     1      -5.317  11.277  17.426  0.00  0.00    +0.401 C 
ATOM      6  O   UNL     1      -5.892  12.329  17.137  0.00  0.00    -0.226 OA
ATOM      7  N   UNL     1      -4.742  11.042  18.607  0.00  0.00    -0.279 N 
ATOM      8  H   UNL     1      -4.304  10.143  18.753  0.00  0.00    +0.152 HD
BRANCH   5   9
ATOM      9  O   UNL     1      -5.255  10.229  16.455  0.00  0.00    -0.444 OA
BRANCH   9  10
ATOM     10  C   UNL     1      -3.909   9.758  16.346  0.00  0.00    +0.292 C 
BRANCH  10  12
ATOM     11  N   UNL     1      -2.230   9.461  14.552  0.00  0.00    -0.131 NA
ATOM     12  C   UNL     1      -3.352  10.093  15.022  0.00  0.00    +0.120 A 
ATOM     13  C   UNL     1      -3.784  11.004  14.083  0.00  0.00    +0.137 A 
ATOM     14  N   UNL     1      -2.852  10.919  13.091  0.00  0.00    -0.247 N 
ATOM     15  N   UNL     1      -1.943   9.962  13.357  0.00  0.00    -0.065 NA
BRANCH  14  16
ATOM     16  C   UNL     1      -2.780  11.680  11.857  0.00  0.00    +0.180 C 
BRANCH  16  17
ATOM     17  C   UNL     1      -2.057  12.984  12.045  0.00  0.00    -0.019 A 
ATOM     18  C   UNL     1      -0.748  13.272  11.529  0.00  0.00    +0.013 A 
ATOM     19  C   UNL     1      -0.299  14.527  11.878  0.00  0.00    +0.045 A 
ATOM     20  S   UNL     1      -1.445  15.377  12.816  0.00  0.00    -0.105 S 
ATOM     21  C   UNL     1      -2.537  14.064  12.768  0.00  0.00    +0.050 A 
ENDBRANCH  16  17
ENDBRANCH  14  16
ENDBRANCH  10  12
ENDBRANCH   9  10
ENDBRANCH   5   9
ENDBRANCH   4   7
ENDBRANCH   1   4
BRANCH   1  22
ATOM     22  C   UNL     1      -3.416  11.554  21.796  0.00  0.00    +0.175 C 
BRANCH  22  23
ATOM     23  C   UNL     1      -3.608  11.798  23.300  0.00  0.00    +0.176 C 
ATOM     24  O   UNL     1      -4.091  10.562  23.895  0.00  0.00    -0.332 OA
ATOM     25  C   UNL     1      -4.232  10.574  25.354  0.00  0.00    +0.277 C 
ATOM     26  C   UNL     1      -5.128  11.755  25.801  0.00  0.00    +0.110 C 
ATOM     27  C   UNL     1      -4.672  13.087  25.168  0.00  0.00    +0.143 C 
ATOM     28  C   UNL     1      -4.555  12.960  23.648  0.00  0.00    +0.133 C 
BRANCH  28  29
ATOM     29  N   UNL     1      -4.037  14.208  23.066  0.00  0.00    -0.308 N 
ATOM     30  H   UNL     1      -3.077  14.457  23.261  0.00  0.00    +0.149 HD
ATOM     31  C   UNL     1      -4.752  15.034  22.297  0.00  0.00    +0.210 C 
ATOM     32  C   UNL     1      -6.219  14.640  22.039  0.00  0.00    +0.109 C 
ATOM     33  O   UNL     1      -4.287  16.065  21.810  0.00  0.00    -0.276 OA
ENDBRANCH  28  29
BRANCH  25  34
ATOM     34  C   UNL     1      -2.853  10.686  26.036  0.00  0.00    +0.414 C 
ATOM     35  O   UNL     1      -2.737  11.285  27.104  0.00  0.00    -0.240 OA
ATOM     36  O   UNL     1      -1.858  10.176  25.520  0.00  0.00    -0.240 OA
ENDBRANCH  25  34
BRANCH  25  37
ATOM     37  O   UNL     1      -4.876   9.336  25.752  0.00  0.00    -0.343 OA
ATOM     38  C   UNL     1      -5.887   8.848  24.834  0.00  0.00    +0.198 C 
ENDBRANCH  25  37
BRANCH  27  39
ATOM     39  O   UNL     1      -5.610  14.116  25.483  0.00  0.00    -0.390 OA
ATOM     40  H   UNL     1      -6.278  14.163  24.796  0.00  0.00    +0.210 HD
ENDBRANCH  27  39
ENDBRANCH  22  23
BRANCH  22  41
ATOM     41  O   UNL     1      -2.703  12.657  21.201  0.00  0.00    -0.387 OA
ATOM     42  H   UNL     1      -1.936  12.325  20.728  0.00  0.00    +0.210 HD
ENDBRANCH  22  41
ENDBRANCH   1  22
TORSDOF 15
