REMARK VINA RESULT:    -3.211      4.467      9.879
REMARK INTER + INTRA:         -10.832
REMARK INTER:                  -8.123
REMARK INTRA:                  -2.709
REMARK UNBOUND:                -4.711
REMARK  Name = lig_assembled_62.pdb
REMARK  20 active torsions:
REMARK  status: ('A' for Active; 'I' for Inactive)
REMARK    1  A    between atoms: _2  and  _10
REMARK    2  A    between atoms: _5  and  _19
REMARK    3  A    between atoms: _6  and  _10
REMARK    4  A    between atoms: _7  and  _8
REMARK    5  A    between atoms: _7  and  _19
REMARK    6  A    between atoms: _10  and  _11
REMARK    7  A    between atoms: _11  and  _14
REMARK    8  A    between atoms: _12  and  _14
REMARK    9  A    between atoms: _15  and  _35
REMARK   10  A    between atoms: _17  and  _23
REMARK   11  A    between atoms: _18  and  _22
REMARK   12  A    between atoms: _22  and  _23
REMARK   13  A    between atoms: _25  and  _26
REMARK   14  A    between atoms: _27  and  _28
REMARK   15  A    between atoms: _29  and  _31
REMARK   16  A    between atoms: _31  and  _32
REMARK   17  A    between atoms: _31  and  _33
REMARK   18  A    between atoms: _33  and  _34
REMARK   19  A    between atoms: _33  and  _35
REMARK   20  A    between atoms: _36  and  _38
REMARK                            x       y       z     vdW  Elec       q    Type
REMARK                         _______ _______ _______ _____ _____    ______ ____
ROOT
ATOM      1  C   UNL     1      -5.325   8.232  23.126  0.00  0.00    +0.163 C 
ENDROOT
BRANCH   1   2
ATOM      2  O   UNL     1      -3.979   7.841  22.811  0.00  0.00    -0.388 OA
ATOM      3  H   UNL     1      -3.945   7.502  21.913  0.00  0.00    +0.210 HD
ENDBRANCH   1   2
BRANCH   1   4
ATOM      4  C   UNL     1      -5.686   9.562  22.442  0.00  0.00    +0.175 C 
BRANCH   4   5
ATOM      5  C   UNL     1      -4.839  10.730  22.968  0.00  0.00    +0.176 C 
ATOM      6  O   UNL     1      -5.129  10.892  24.383  0.00  0.00    -0.332 OA
ATOM      7  C   UNL     1      -4.329  11.900  25.083  0.00  0.00    +0.277 C 
ATOM      8  C   UNL     1      -4.437  13.269  24.368  0.00  0.00    +0.110 C 
ATOM      9  C   UNL     1      -4.167  13.143  22.853  0.00  0.00    +0.143 C 
ATOM     10  C   UNL     1      -5.052  12.064  22.227  0.00  0.00    +0.133 C 
BRANCH  10  11
ATOM     11  N   UNL     1      -4.725  11.892  20.803  0.00  0.00    -0.308 N 
ATOM     12  H   UNL     1      -3.786  11.603  20.566  0.00  0.00    +0.149 HD
ATOM     13  C   UNL     1      -5.588  12.093  19.803  0.00  0.00    +0.210 C 
ATOM     14  C   UNL     1      -7.003  12.558  20.196  0.00  0.00    +0.109 C 
ATOM     15  O   UNL     1      -5.290  11.928  18.620  0.00  0.00    -0.276 OA
ENDBRANCH  10  11
BRANCH   7  16
ATOM     16  C   UNL     1      -2.848  11.471  25.154  0.00  0.00    +0.414 C 
ATOM     17  O   UNL     1      -2.551  10.279  25.210  0.00  0.00    -0.240 OA
ATOM     18  O   UNL     1      -1.953  12.316  25.156  0.00  0.00    -0.240 OA
ENDBRANCH   7  16
BRANCH   7  19
ATOM     19  O   UNL     1      -4.860  12.043  26.426  0.00  0.00    -0.343 OA
ATOM     20  C   UNL     1      -5.684  10.939  26.879  0.00  0.00    +0.198 C 
ENDBRANCH   7  19
BRANCH   9  21
ATOM     21  O   UNL     1      -4.425  14.393  22.212  0.00  0.00    -0.390 OA
ATOM     22  H   UNL     1      -3.895  15.079  22.624  0.00  0.00    +0.210 HD
ENDBRANCH   9  21
ENDBRANCH   4   5
BRANCH   4  23
ATOM     23  O   UNL     1      -7.089   9.846  22.619  0.00  0.00    -0.387 OA
ATOM     24  H   UNL     1      -7.609   9.106  22.296  0.00  0.00    +0.210 HD
ENDBRANCH   4  23
ENDBRANCH   1   4
BRANCH   1  25
ATOM     25  C   UNL     1      -6.301   7.148  22.680  0.00  0.00    +0.141 C 
BRANCH  25  28
ATOM     26  C   UNL     1      -5.868   6.629  20.303  0.00  0.00    +0.401 C 
ATOM     27  O   UNL     1      -4.868   5.946  20.537  0.00  0.00    -0.226 OA
ATOM     28  N   UNL     1      -6.595   7.233  21.244  0.00  0.00    -0.279 N 
ATOM     29  H   UNL     1      -7.392   7.781  20.952  0.00  0.00    +0.152 HD
BRANCH  26  30
ATOM     30  O   UNL     1      -6.290   6.802  18.948  0.00  0.00    -0.444 OA
BRANCH  30  31
ATOM     31  C   UNL     1      -5.912   8.104  18.492  0.00  0.00    +0.292 C 
BRANCH  31  33
ATOM     32  N   UNL     1      -3.991   7.008  17.377  0.00  0.00    -0.131 NA
ATOM     33  C   UNL     1      -4.935   7.999  17.391  0.00  0.00    +0.120 A 
ATOM     34  C   UNL     1      -4.781   8.782  16.269  0.00  0.00    +0.138 A 
ATOM     35  N   UNL     1      -3.717   8.227  15.619  0.00  0.00    -0.237 N 
ATOM     36  N   UNL     1      -3.251   7.154  16.287  0.00  0.00    -0.065 NA
BRANCH  35  37
ATOM     37  C   UNL     1      -3.097   8.611  14.362  0.00  0.00    +0.219 C 
BRANCH  37  38
ATOM     38  C   UNL     1      -1.729   7.961  14.227  0.00  0.00    +0.237 C 
ATOM     39  O   UNL     1      -1.412   7.196  13.320  0.00  0.00    -0.274 OA
ATOM     40  N   UNL     1      -0.797   8.325  15.163  0.00  0.00    -0.328 N 
ATOM     41  H   UNL     1      -0.962   9.017  15.881  0.00  0.00    +0.145 HD
ATOM     42  H   UNL     1       0.126   7.914  15.092  0.00  0.00    +0.145 HD
ENDBRANCH  37  38
BRANCH  37  43
ATOM     43  C   UNL     1      -2.995  10.130  14.251  0.00  0.00    +0.195 C 
BRANCH  43  44
ATOM     44  O   UNL     1      -2.144  10.470  13.147  0.00  0.00    -0.380 OA
ATOM     45  C   UNL     1      -2.875  11.070  12.084  0.00  0.00    +0.194 C 
ENDBRANCH  43  44
ENDBRANCH  37  43
ENDBRANCH  35  37
ENDBRANCH  31  33
ENDBRANCH  30  31
ENDBRANCH  26  30
ENDBRANCH  25  28
ENDBRANCH   1  25
TORSDOF 17
