REMARK VINA RESULT:    -4.437      2.940      5.806
REMARK INTER + INTRA:         -12.178
REMARK INTER:                  -8.587
REMARK INTRA:                  -3.591
REMARK UNBOUND:                -3.979
REMARK  Name = lig_assembled_24.pdb
REMARK  19 active torsions:
REMARK  status: ('A' for Active; 'I' for Inactive)
REMARK    1  A    between atoms: _2  and  _9
REMARK    2  A    between atoms: _4  and  _21
REMARK    3  A    between atoms: _6  and  _7
REMARK    4  A    between atoms: _6  and  _21
REMARK    5  A    between atoms: _9  and  _10
REMARK    6  A    between atoms: _13  and  _16
REMARK    7  A    between atoms: _14  and  _16
REMARK    8  A    between atoms: _17  and  _37
REMARK    9  A    between atoms: _19  and  _25
REMARK   10  A    between atoms: _20  and  _24
REMARK   11  A    between atoms: _24  and  _25
REMARK   12  A    between atoms: _27  and  _28
REMARK   13  A    between atoms: _29  and  _30
REMARK   14  A    between atoms: _31  and  _33
REMARK   15  A    between atoms: _33  and  _34
REMARK   16  A    between atoms: _33  and  _35
REMARK   17  A    between atoms: _35  and  _36
REMARK   18  A    between atoms: _35  and  _37
REMARK   19  A    between atoms: _38  and  _40
REMARK                            x       y       z     vdW  Elec       q    Type
REMARK                         _______ _______ _______ _____ _____    ______ ____
ROOT
ATOM      1  C   UNL     1      -3.012  12.085  22.749  0.00  0.00    +0.163 C 
ENDROOT
BRANCH   1   2
ATOM      2  O   UNL     1      -2.810  12.789  23.985  0.00  0.00    -0.388 OA
ATOM      3  H   UNL     1      -3.406  13.541  24.027  0.00  0.00    +0.210 HD
ENDBRANCH   1   2
BRANCH   1   4
ATOM      4  C   UNL     1      -3.772  10.768  22.985  0.00  0.00    +0.175 C 
BRANCH   4   5
ATOM      5  C   UNL     1      -3.927  10.449  24.479  0.00  0.00    +0.176 C 
ATOM      6  O   UNL     1      -2.892   9.495  24.843  0.00  0.00    -0.332 OA
ATOM      7  C   UNL     1      -2.818   9.151  26.266  0.00  0.00    +0.277 C 
ATOM      8  C   UNL     1      -4.193   8.652  26.774  0.00  0.00    +0.110 C 
ATOM      9  C   UNL     1      -5.330   9.618  26.383  0.00  0.00    +0.143 C 
ATOM     10  C   UNL     1      -5.312   9.909  24.882  0.00  0.00    +0.133 C 
BRANCH  10  11
ATOM     11  N   UNL     1      -6.345  10.898  24.536  0.00  0.00    -0.308 N 
ATOM     12  H   UNL     1      -6.272  11.819  24.946  0.00  0.00    +0.149 HD
ATOM     13  C   UNL     1      -7.372  10.658  23.717  0.00  0.00    +0.210 C 
ATOM     14  C   UNL     1      -7.469   9.238  23.130  0.00  0.00    +0.109 C 
ATOM     15  O   UNL     1      -8.214  11.511  23.433  0.00  0.00    -0.276 OA
ENDBRANCH  10  11
BRANCH   7  16
ATOM     16  C   UNL     1      -2.372  10.370  27.100  0.00  0.00    +0.414 C 
ATOM     17  O   UNL     1      -1.857  11.343  26.550  0.00  0.00    -0.240 OA
ATOM     18  O   UNL     1      -2.527  10.381  28.322  0.00  0.00    -0.240 OA
ENDBRANCH   7  16
BRANCH   7  19
ATOM     19  O   UNL     1      -1.855   8.077  26.419  0.00  0.00    -0.343 OA
ATOM     20  C   UNL     1      -2.433   6.760  26.607  0.00  0.00    +0.198 C 
ENDBRANCH   7  19
BRANCH   9  21
ATOM     21  O   UNL     1      -6.590   9.047  26.737  0.00  0.00    -0.390 OA
ATOM     22  H   UNL     1      -6.918   9.464  27.537  0.00  0.00    +0.210 HD
ENDBRANCH   9  21
ENDBRANCH   4   5
BRANCH   4  23
ATOM     23  O   UNL     1      -3.103   9.682  22.312  0.00  0.00    -0.387 OA
ATOM     24  H   UNL     1      -3.666   9.343  21.612  0.00  0.00    +0.210 HD
ENDBRANCH   4  23
ENDBRANCH   1   4
BRANCH   1  25
ATOM     25  C   UNL     1      -3.796  12.957  21.774  0.00  0.00    +0.141 C 
BRANCH  25  28
ATOM     26  C   UNL     1      -5.528  14.563  22.497  0.00  0.00    +0.401 C 
ATOM     27  O   UNL     1      -4.833  15.557  22.275  0.00  0.00    -0.226 OA
ATOM     28  N   UNL     1      -5.121  13.309  22.297  0.00  0.00    -0.279 N 
ATOM     29  H   UNL     1      -5.761  12.559  22.518  0.00  0.00    +0.152 HD
BRANCH  26  30
ATOM     30  O   UNL     1      -6.853  14.742  23.004  0.00  0.00    -0.444 OA
BRANCH  30  31
ATOM     31  C   UNL     1      -6.797  15.428  24.257  0.00  0.00    +0.292 C 
BRANCH  31  33
ATOM     32  N   UNL     1      -5.179  13.828  25.231  0.00  0.00    -0.131 NA
ATOM     33  C   UNL     1      -6.362  14.510  25.326  0.00  0.00    +0.120 A 
ATOM     34  C   UNL     1      -6.969  14.195  26.521  0.00  0.00    +0.137 A 
ATOM     35  N   UNL     1      -6.076  13.371  27.142  0.00  0.00    -0.247 N 
ATOM     36  N   UNL     1      -5.017  13.125  26.342  0.00  0.00    -0.065 NA
BRANCH  35  37
ATOM     37  C   UNL     1      -6.079  12.805  28.481  0.00  0.00    +0.180 C 
BRANCH  37  38
ATOM     38  C   UNL     1      -5.197  13.524  29.474  0.00  0.00    -0.026 A 
ATOM     39  C   UNL     1      -5.492  14.835  29.867  0.00  0.00    +0.009 A 
ATOM     40  C   UNL     1      -4.672  15.493  30.788  0.00  0.00    +0.046 A 
ATOM     41  C   UNL     1      -3.562  14.851  31.339  0.00  0.00    +0.120 A 
ATOM     42  C   UNL     1      -3.249  13.556  30.934  0.00  0.00    +0.046 A 
ATOM     43  C   UNL     1      -4.062  12.894  30.006  0.00  0.00    +0.009 A 
BRANCH  41  44
ATOM     44  O   UNL     1      -2.824  15.601  32.213  0.00  0.00    -0.495 OA
ATOM     45  C   UNL     1      -3.520  16.053  33.371  0.00  0.00    +0.277 C 
ENDBRANCH  41  44
ENDBRANCH  37  38
ENDBRANCH  35  37
ENDBRANCH  31  33
ENDBRANCH  30  31
ENDBRANCH  26  30
ENDBRANCH  25  28
ENDBRANCH   1  25
TORSDOF 16
