REMARK VINA RESULT:    -4.413      6.745     11.555
REMARK INTER + INTRA:         -11.603
REMARK INTER:                  -9.938
REMARK INTRA:                  -1.665
REMARK UNBOUND:                -3.320
REMARK  Name = lig_assembled_16.pdb
REMARK  19 active torsions:
REMARK  status: ('A' for Active; 'I' for Inactive)
REMARK    1  A    between atoms: _2  and  _9
REMARK    2  A    between atoms: _4  and  _22
REMARK    3  A    between atoms: _6  and  _7
REMARK    4  A    between atoms: _6  and  _22
REMARK    5  A    between atoms: _9  and  _10
REMARK    6  A    between atoms: _13  and  _14
REMARK    7  A    between atoms: _14  and  _16
REMARK    8  A    between atoms: _18  and  _38
REMARK    9  A    between atoms: _20  and  _26
REMARK   10  A    between atoms: _21  and  _25
REMARK   11  A    between atoms: _25  and  _26
REMARK   12  A    between atoms: _28  and  _29
REMARK   13  A    between atoms: _30  and  _31
REMARK   14  A    between atoms: _32  and  _34
REMARK   15  A    between atoms: _34  and  _35
REMARK   16  A    between atoms: _34  and  _36
REMARK   17  A    between atoms: _36  and  _37
REMARK   18  A    between atoms: _36  and  _38
REMARK   19  A    between atoms: _39  and  _41
REMARK                            x       y       z     vdW  Elec       q    Type
REMARK                         _______ _______ _______ _____ _____    ______ ____
ROOT
ATOM      1  C   UNL     1      -6.178  10.129  20.404  0.00  0.00    +0.163 C 
ENDROOT
BRANCH   1   2
ATOM      2  O   UNL     1      -5.133   9.153  20.265  0.00  0.00    -0.388 OA
ATOM      3  H   UNL     1      -5.438   8.307  20.603  0.00  0.00    +0.210 HD
ENDBRANCH   1   2
BRANCH   1   4
ATOM      4  C   UNL     1      -5.916  11.048  21.610  0.00  0.00    +0.175 C 
BRANCH   4   5
ATOM      5  C   UNL     1      -4.925  10.427  22.605  0.00  0.00    +0.176 C 
ATOM      6  O   UNL     1      -5.675   9.566  23.505  0.00  0.00    -0.332 OA
ATOM      7  C   UNL     1      -4.874   8.800  24.465  0.00  0.00    +0.277 C 
ATOM      8  C   UNL     1      -3.962   9.746  25.285  0.00  0.00    +0.110 C 
ATOM      9  C   UNL     1      -3.167  10.703  24.372  0.00  0.00    +0.143 C 
ATOM     10  C   UNL     1      -4.098  11.445  23.412  0.00  0.00    +0.133 C 
BRANCH  10  11
ATOM     11  N   UNL     1      -3.321  12.288  22.490  0.00  0.00    -0.308 N 
ATOM     12  H   UNL     1      -2.584  11.849  21.956  0.00  0.00    +0.149 HD
ATOM     13  C   UNL     1      -3.526  13.596  22.312  0.00  0.00    +0.210 C 
ATOM     14  C   UNL     1      -4.638  14.242  23.160  0.00  0.00    +0.109 C 
ATOM     15  O   UNL     1      -2.869  14.274  21.521  0.00  0.00    -0.276 OA
ENDBRANCH  10  11
BRANCH   7  16
ATOM     16  C   UNL     1      -4.008   7.749  23.739  0.00  0.00    +0.414 C 
ATOM     17  O   UNL     1      -4.164   7.540  22.537  0.00  0.00    -0.240 OA
ATOM     18  O   UNL     1      -3.153   7.112  24.356  0.00  0.00    -0.240 OA
ENDBRANCH   7  16
BRANCH   7  19
ATOM     19  O   UNL     1      -5.783   8.136  25.380  0.00  0.00    -0.343 OA
ATOM     20  C   UNL     1      -7.149   8.019  24.908  0.00  0.00    +0.198 C 
ENDBRANCH   7  19
BRANCH   9  21
ATOM     21  O   UNL     1      -2.459  11.653  25.169  0.00  0.00    -0.390 OA
ATOM     22  H   UNL     1      -1.912  12.203  24.603  0.00  0.00    +0.210 HD
ENDBRANCH   9  21
ENDBRANCH   4   5
BRANCH   4  23
ATOM     23  O   UNL     1      -7.156  11.362  22.275  0.00  0.00    -0.387 OA
ATOM     24  H   UNL     1      -7.193  10.902  23.117  0.00  0.00    +0.210 HD
ENDBRANCH   4  23
ENDBRANCH   1   4
BRANCH   1  25
ATOM     25  C   UNL     1      -6.279  10.970  19.136  0.00  0.00    +0.141 C 
BRANCH  25  28
ATOM     26  C   UNL     1      -5.172  10.655  16.949  0.00  0.00    +0.401 C 
ATOM     27  O   UNL     1      -6.228  10.635  16.312  0.00  0.00    -0.226 OA
ATOM     28  N   UNL     1      -5.103  10.801  18.273  0.00  0.00    -0.279 N 
ATOM     29  H   UNL     1      -4.191  10.795  18.706  0.00  0.00    +0.152 HD
BRANCH  26  30
ATOM     30  O   UNL     1      -3.935  10.511  16.247  0.00  0.00    -0.444 OA
BRANCH  30  31
ATOM     31  C   UNL     1      -4.177   9.923  14.966  0.00  0.00    +0.292 C 
BRANCH  31  33
ATOM     32  N   UNL     1      -2.303  10.190  13.369  0.00  0.00    -0.131 NA
ATOM     33  C   UNL     1      -3.464  10.672  13.917  0.00  0.00    +0.120 A 
ATOM     34  C   UNL     1      -3.788  11.865  13.310  0.00  0.00    +0.137 A 
ATOM     35  N   UNL     1      -2.840  12.003  12.340  0.00  0.00    -0.247 N 
ATOM     36  N   UNL     1      -1.918  11.025  12.412  0.00  0.00    -0.065 NA
BRANCH  35  37
ATOM     37  C   UNL     1      -2.762  13.016  11.308  0.00  0.00    +0.180 C 
BRANCH  37  38
ATOM     38  C   UNL     1      -1.471  13.797  11.399  0.00  0.00    -0.026 A 
ATOM     39  C   UNL     1      -0.470  13.640  10.429  0.00  0.00    +0.006 A 
ATOM     40  C   UNL     1       0.706  14.393  10.498  0.00  0.00    +0.015 A 
ATOM     41  C   UNL     1       0.904  15.301  11.541  0.00  0.00    +0.059 A 
ATOM     42  C   UNL     1      -0.081  15.450  12.528  0.00  0.00    +0.015 A 
ATOM     43  C   UNL     1      -1.254  14.691  12.460  0.00  0.00    +0.006 A 
BRANCH  41  44
ATOM     44  C   UNL     1       2.139  16.128  11.525  0.00  0.00    +0.337 C 
ATOM     45  O   UNL     1       2.999  16.007  10.668  0.00  0.00    -0.245 OA
BRANCH  44  46
ATOM     46  O   UNL     1       2.239  16.992  12.553  0.00  0.00    -0.477 OA
ATOM     47  H   UNL     1       1.930  17.897  12.367  0.00  0.00    +0.295 HD
ENDBRANCH  44  46
ENDBRANCH  41  44
ENDBRANCH  37  38
ENDBRANCH  35  37
ENDBRANCH  31  33
ENDBRANCH  30  31
ENDBRANCH  26  30
ENDBRANCH  25  28
ENDBRANCH   1  25
TORSDOF 17
