REMARK VINA RESULT:    -4.959      2.570      5.515
REMARK INTER + INTRA:         -11.088
REMARK INTER:                  -7.568
REMARK INTRA:                  -3.519
REMARK UNBOUND:                -2.505
REMARK  Name = lig_assembled_3.pdb
REMARK  16 active torsions:
REMARK  status: ('A' for Active; 'I' for Inactive)
REMARK    1  A    between atoms: _2  and  _9
REMARK    2  A    between atoms: _4  and  _18
REMARK    3  A    between atoms: _6  and  _7
REMARK    4  A    between atoms: _6  and  _18
REMARK    5  A    between atoms: _14  and  _34
REMARK    6  A    between atoms: _16  and  _22
REMARK    7  A    between atoms: _17  and  _21
REMARK    8  A    between atoms: _21  and  _22
REMARK    9  A    between atoms: _24  and  _25
REMARK   10  A    between atoms: _26  and  _27
REMARK   11  A    between atoms: _28  and  _30
REMARK   12  A    between atoms: _30  and  _31
REMARK   13  A    between atoms: _30  and  _32
REMARK   14  A    between atoms: _32  and  _33
REMARK   15  A    between atoms: _32  and  _34
REMARK   16  A    between atoms: _35  and  _37
REMARK                            x       y       z     vdW  Elec       q    Type
REMARK                         _______ _______ _______ _____ _____    ______ ____
ROOT
ATOM      1  C   UNL     1      -3.936  10.538  23.151  0.00  0.00    +0.163 C 
ENDROOT
BRANCH   1   2
ATOM      2  O   UNL     1      -2.905  11.061  24.003  0.00  0.00    -0.388 OA
ATOM      3  H   UNL     1      -3.229  11.845  24.454  0.00  0.00    +0.210 HD
ENDBRANCH   1   2
BRANCH   1   4
ATOM      4  C   UNL     1      -4.720  11.682  22.516  0.00  0.00    +0.141 C 
BRANCH   4   7
ATOM      5  C   UNL     1      -6.065  13.143  23.986  0.00  0.00    +0.401 C 
ATOM      6  O   UNL     1      -7.125  12.555  23.758  0.00  0.00    -0.226 OA
ATOM      7  N   UNL     1      -4.894  12.806  23.444  0.00  0.00    -0.279 N 
ATOM      8  H   UNL     1      -4.082  13.356  23.685  0.00  0.00    +0.152 HD
BRANCH   5   9
ATOM      9  O   UNL     1      -6.069  14.259  24.880  0.00  0.00    -0.444 OA
BRANCH   9  10
ATOM     10  C   UNL     1      -6.665  13.875  26.122  0.00  0.00    +0.292 C 
BRANCH  10  12
ATOM     11  N   UNL     1      -4.619  12.532  26.485  0.00  0.00    -0.131 NA
ATOM     12  C   UNL     1      -5.658  13.250  27.002  0.00  0.00    +0.121 A 
ATOM     13  C   UNL     1      -5.558  13.265  28.374  0.00  0.00    +0.143 A 
ATOM     14  N   UNL     1      -4.412  12.557  28.656  0.00  0.00    -0.220 N 
ATOM     15  N   UNL     1      -3.870  12.109  27.495  0.00  0.00    -0.060 NA
BRANCH  14  16
ATOM     16  C   UNL     1      -3.811  12.304  29.915  0.00  0.00    +0.067 A 
ATOM     17  C   UNL     1      -3.703  10.997  30.412  0.00  0.00    +0.028 A 
ATOM     18  C   UNL     1      -3.135  10.771  31.669  0.00  0.00    +0.002 A 
ATOM     19  C   UNL     1      -2.671  11.841  32.431  0.00  0.00    +0.000 A 
ATOM     20  C   UNL     1      -2.766  13.142  31.939  0.00  0.00    +0.002 A 
ATOM     21  C   UNL     1      -3.333  13.376  30.684  0.00  0.00    +0.028 A 
ENDBRANCH  14  16
ENDBRANCH  10  12
ENDBRANCH   9  10
ENDBRANCH   5   9
ENDBRANCH   4   7
ENDBRANCH   1   4
BRANCH   1  22
ATOM     22  C   UNL     1      -4.897   9.634  23.941  0.00  0.00    +0.175 C 
BRANCH  22  23
ATOM     23  C   UNL     1      -4.384   9.345  25.360  0.00  0.00    +0.176 C 
ATOM     24  O   UNL     1      -3.360   8.317  25.264  0.00  0.00    -0.332 OA
ATOM     25  C   UNL     1      -2.676   7.984  26.517  0.00  0.00    +0.277 C 
ATOM     26  C   UNL     1      -3.704   7.599  27.609  0.00  0.00    +0.110 C 
ATOM     27  C   UNL     1      -4.831   8.648  27.726  0.00  0.00    +0.143 C 
ATOM     28  C   UNL     1      -5.471   8.920  26.364  0.00  0.00    +0.133 C 
BRANCH  28  29
ATOM     29  N   UNL     1      -6.482   9.983  26.473  0.00  0.00    -0.308 N 
ATOM     30  H   UNL     1      -6.181  10.888  26.805  0.00  0.00    +0.149 HD
ATOM     31  C   UNL     1      -7.772   9.829  26.163  0.00  0.00    +0.210 C 
ATOM     32  C   UNL     1      -8.205   8.430  25.685  0.00  0.00    +0.109 C 
ATOM     33  O   UNL     1      -8.594  10.742  26.250  0.00  0.00    -0.276 OA
ENDBRANCH  28  29
BRANCH  25  34
ATOM     34  C   UNL     1      -1.824   9.174  27.008  0.00  0.00    +0.414 C 
ATOM     35  O   UNL     1      -1.273   9.917  26.197  0.00  0.00    -0.240 OA
ATOM     36  O   UNL     1      -1.689   9.390  28.213  0.00  0.00    -0.240 OA
ENDBRANCH  25  34
BRANCH  27  37
ATOM     37  O   UNL     1      -5.831   8.182  28.632  0.00  0.00    -0.390 OA
ATOM     38  H   UNL     1      -5.504   7.411  29.102  0.00  0.00    +0.210 HD
ENDBRANCH  27  37
BRANCH  25  39
ATOM     39  O   UNL     1      -1.820   6.839  26.272  0.00  0.00    -0.343 OA
ATOM     40  C   UNL     1      -1.948   5.762  27.233  0.00  0.00    +0.198 C 
ENDBRANCH  25  39
ENDBRANCH  22  23
BRANCH  22  41
ATOM     41  O   UNL     1      -5.115   8.398  23.231  0.00  0.00    -0.387 OA
ATOM     42  H   UNL     1      -5.977   8.044  23.460  0.00  0.00    +0.210 HD
ENDBRANCH  22  41
ENDBRANCH   1  22
TORSDOF 14
