REMARK VINA RESULT:    -5.339      3.972     10.801
REMARK INTER + INTRA:         -12.731
REMARK INTER:                 -10.166
REMARK INTRA:                  -2.565
REMARK UNBOUND:                -2.554
REMARK  Name = lig_assembled_9.pdb
REMARK  20 active torsions:
REMARK  status: ('A' for Active; 'I' for Inactive)
REMARK    1  A    between atoms: _2  and  _9
REMARK    2  A    between atoms: _4  and  _23
REMARK    3  A    between atoms: _6  and  _7
REMARK    4  A    between atoms: _6  and  _23
REMARK    5  A    between atoms: _11  and  _12
REMARK    6  A    between atoms: _12  and  _17
REMARK    7  A    between atoms: _13  and  _14
REMARK    8  A    between atoms: _13  and  _17
REMARK    9  A    between atoms: _19  and  _39
REMARK   10  A    between atoms: _21  and  _27
REMARK   11  A    between atoms: _22  and  _26
REMARK   12  A    between atoms: _26  and  _27
REMARK   13  A    between atoms: _29  and  _30
REMARK   14  A    between atoms: _31  and  _32
REMARK   15  A    between atoms: _33  and  _35
REMARK   16  A    between atoms: _35  and  _36
REMARK   17  A    between atoms: _35  and  _37
REMARK   18  A    between atoms: _37  and  _38
REMARK   19  A    between atoms: _37  and  _39
REMARK   20  A    between atoms: _40  and  _42
REMARK                            x       y       z     vdW  Elec       q    Type
REMARK                         _______ _______ _______ _____ _____    ______ ____
ROOT
ATOM      1  C   UNL     1      -3.443  12.556  24.203  0.00  0.00    +0.163 C 
ENDROOT
BRANCH   1   2
ATOM      2  O   UNL     1      -2.028  12.457  24.434  0.00  0.00    -0.388 OA
ATOM      3  H   UNL     1      -1.629  13.327  24.358  0.00  0.00    +0.210 HD
ENDBRANCH   1   2
BRANCH   1   4
ATOM      4  C   UNL     1      -4.207  12.706  25.530  0.00  0.00    +0.175 C 
BRANCH   4   5
ATOM      5  C   UNL     1      -3.863  11.588  26.525  0.00  0.00    +0.176 C 
ATOM      6  O   UNL     1      -3.845  10.331  25.795  0.00  0.00    -0.332 OA
ATOM      7  C   UNL     1      -3.429   9.156  26.567  0.00  0.00    +0.277 C 
ATOM      8  C   UNL     1      -4.297   9.010  27.841  0.00  0.00    +0.110 C 
ATOM      9  C   UNL     1      -4.371  10.332  28.634  0.00  0.00    +0.143 C 
ATOM     10  C   UNL     1      -4.811  11.487  27.734  0.00  0.00    +0.133 C 
BRANCH  10  11
ATOM     11  N   UNL     1      -4.794  12.756  28.479  0.00  0.00    -0.308 N 
ATOM     12  H   UNL     1      -3.898  13.119  28.773  0.00  0.00    +0.149 HD
ATOM     13  C   UNL     1      -5.886  13.460  28.792  0.00  0.00    +0.210 C 
ATOM     14  C   UNL     1      -7.238  12.868  28.352  0.00  0.00    +0.109 C 
ATOM     15  O   UNL     1      -5.840  14.528  29.404  0.00  0.00    -0.276 OA
ENDBRANCH  10  11
BRANCH   7  16
ATOM     16  C   UNL     1      -1.942   9.262  26.965  0.00  0.00    +0.414 C 
ATOM     17  O   UNL     1      -1.165   9.935  26.289  0.00  0.00    -0.240 OA
ATOM     18  O   UNL     1      -1.520   8.676  27.963  0.00  0.00    -0.240 OA
ENDBRANCH   7  16
BRANCH   7  19
ATOM     19  O   UNL     1      -3.630   7.981  25.740  0.00  0.00    -0.343 OA
ATOM     20  C   UNL     1      -4.351   6.898  26.380  0.00  0.00    +0.198 C 
ENDBRANCH   7  19
BRANCH   9  21
ATOM     21  O   UNL     1      -5.298  10.196  29.712  0.00  0.00    -0.390 OA
ATOM     22  H   UNL     1      -5.900  10.944  29.714  0.00  0.00    +0.210 HD
ENDBRANCH   9  21
ENDBRANCH   4   5
BRANCH   4  23
ATOM     23  O   UNL     1      -5.627  12.733  25.285  0.00  0.00    -0.387 OA
ATOM     24  H   UNL     1      -5.819  13.355  24.579  0.00  0.00    +0.210 HD
ENDBRANCH   4  23
ENDBRANCH   1   4
BRANCH   1  25
ATOM     25  C   UNL     1      -3.743  13.752  23.304  0.00  0.00    +0.141 C 
BRANCH  25  28
ATOM     26  C   UNL     1      -5.915  13.751  22.127  0.00  0.00    +0.401 C 
ATOM     27  O   UNL     1      -6.492  14.412  22.993  0.00  0.00    -0.226 OA
ATOM     28  N   UNL     1      -4.632  13.392  22.193  0.00  0.00    -0.279 N 
ATOM     29  H   UNL     1      -4.251  12.841  21.437  0.00  0.00    +0.152 HD
BRANCH  26  30
ATOM     30  O   UNL     1      -6.647  13.329  20.973  0.00  0.00    -0.444 OA
BRANCH  30  31
ATOM     31  C   UNL     1      -6.429  11.933  20.753  0.00  0.00    +0.292 C 
BRANCH  31  33
ATOM     32  N   UNL     1      -6.758  12.323  18.331  0.00  0.00    -0.131 NA
ATOM     33  C   UNL     1      -6.094  11.685  19.338  0.00  0.00    +0.121 A 
ATOM     34  C   UNL     1      -5.139  10.859  18.795  0.00  0.00    +0.143 A 
ATOM     35  N   UNL     1      -5.231  11.056  17.435  0.00  0.00    -0.220 N 
ATOM     36  N   UNL     1      -6.234  11.929  17.177  0.00  0.00    -0.060 NA
BRANCH  35  37
ATOM     37  C   UNL     1      -4.429  10.504  16.403  0.00  0.00    +0.068 A 
ATOM     38  C   UNL     1      -4.042  11.286  15.306  0.00  0.00    +0.042 A 
ATOM     39  C   UNL     1      -3.276  10.727  14.272  0.00  0.00    +0.061 A 
ATOM     40  C   UNL     1      -2.894   9.383  14.341  0.00  0.00    +0.015 A 
ATOM     41  C   UNL     1      -3.268   8.604  15.439  0.00  0.00    +0.003 A 
ATOM     42  C   UNL     1      -4.030   9.160  16.468  0.00  0.00    +0.028 A 
BRANCH  39  43
ATOM     43  C   UNL     1      -2.795  11.538  13.123  0.00  0.00    +0.339 C 
ATOM     44  O   UNL     1      -1.912  11.178  12.362  0.00  0.00    -0.245 OA
BRANCH  43  45
ATOM     45  O   UNL     1      -3.410  12.746  13.125  0.00  0.00    -0.461 OA
BRANCH  45  46
ATOM     46  C   UNL     1      -2.689  13.808  12.485  0.00  0.00    +0.229 C 
ATOM     47  C   UNL     1      -2.798  15.042  13.361  0.00  0.00    +0.048 C 
ENDBRANCH  45  46
ENDBRANCH  43  45
ENDBRANCH  39  43
ENDBRANCH  35  37
ENDBRANCH  31  33
ENDBRANCH  30  31
ENDBRANCH  26  30
ENDBRANCH  25  28
ENDBRANCH   1  25
TORSDOF 17
