REMARK VINA RESULT:    -5.440      3.848     10.774
REMARK INTER + INTRA:         -14.557
REMARK INTER:                 -10.041
REMARK INTRA:                  -4.516
REMARK UNBOUND:                -3.392
REMARK  Name = lig_assembled_47.pdb
REMARK  22 active torsions:
REMARK  status: ('A' for Active; 'I' for Inactive)
REMARK    1  A    between atoms: _2  and  _9
REMARK    2  A    between atoms: _4  and  _30
REMARK    3  A    between atoms: _6  and  _7
REMARK    4  A    between atoms: _6  and  _30
REMARK    5  A    between atoms: _9  and  _10
REMARK    6  A    between atoms: _10  and  _11
REMARK    7  A    between atoms: _10  and  _12
REMARK    8  A    between atoms: _11  and  _24
REMARK    9  A    between atoms: _12  and  _13
REMARK   10  A    between atoms: _12  and  _19
REMARK   11  A    between atoms: _26  and  _46
REMARK   12  A    between atoms: _28  and  _34
REMARK   13  A    between atoms: _29  and  _33
REMARK   14  A    between atoms: _33  and  _34
REMARK   15  A    between atoms: _36  and  _37
REMARK   16  A    between atoms: _38  and  _39
REMARK   17  A    between atoms: _40  and  _42
REMARK   18  A    between atoms: _42  and  _43
REMARK   19  A    between atoms: _42  and  _44
REMARK   20  A    between atoms: _44  and  _45
REMARK   21  A    between atoms: _44  and  _46
REMARK   22  A    between atoms: _47  and  _49
REMARK                            x       y       z     vdW  Elec       q    Type
REMARK                         _______ _______ _______ _____ _____    ______ ____
ROOT
ATOM      1  C   UNL     1      -6.027   6.389  20.296  0.00  0.00    +0.401 C 
ATOM      2  O   UNL     1      -4.887   6.473  20.759  0.00  0.00    -0.226 OA
ATOM      3  N   UNL     1      -6.306   6.417  18.992  0.00  0.00    -0.279 N 
ATOM      4  H   UNL     1      -7.272   6.331  18.709  0.00  0.00    +0.152 HD
ENDROOT
BRANCH   3   5
ATOM      5  C   UNL     1      -5.288   6.565  17.945  0.00  0.00    +0.141 C 
BRANCH   5   6
ATOM      6  C   UNL     1      -5.279   7.973  17.357  0.00  0.00    +0.163 C 
BRANCH   6   7
ATOM      7  O   UNL     1      -4.839   8.916  18.348  0.00  0.00    -0.388 OA
ATOM      8  H   UNL     1      -4.326   8.461  19.019  0.00  0.00    +0.210 HD
ENDBRANCH   6   7
BRANCH   6   9
ATOM      9  C   UNL     1      -4.364   8.007  16.120  0.00  0.00    +0.175 C 
BRANCH   9  10
ATOM     10  C   UNL     1      -4.118   9.439  15.623  0.00  0.00    +0.176 C 
ATOM     11  O   UNL     1      -5.345  10.196  15.813  0.00  0.00    -0.332 OA
ATOM     12  C   UNL     1      -5.266  11.623  15.490  0.00  0.00    +0.277 C 
ATOM     13  C   UNL     1      -4.747  11.823  14.045  0.00  0.00    +0.110 C 
ATOM     14  C   UNL     1      -3.460  11.012  13.785  0.00  0.00    +0.143 C 
ATOM     15  C   UNL     1      -3.653   9.542  14.159  0.00  0.00    +0.133 C 
BRANCH  15  16
ATOM     16  N   UNL     1      -2.395   8.797  13.989  0.00  0.00    -0.308 N 
ATOM     17  H   UNL     1      -1.667   8.939  14.675  0.00  0.00    +0.149 HD
ATOM     18  C   UNL     1      -2.152   7.947  12.987  0.00  0.00    +0.210 C 
ATOM     19  C   UNL     1      -3.272   7.774  11.944  0.00  0.00    +0.109 C 
ATOM     20  O   UNL     1      -1.094   7.327  12.879  0.00  0.00    -0.276 OA
ENDBRANCH  15  16
BRANCH  12  21
ATOM     21  C   UNL     1      -4.336  12.357  16.478  0.00  0.00    +0.414 C 
ATOM     22  O   UNL     1      -3.591  13.253  16.080  0.00  0.00    -0.240 OA
ATOM     23  O   UNL     1      -4.329  12.055  17.672  0.00  0.00    -0.240 OA
ENDBRANCH  12  21
BRANCH  12  24
ATOM     24  O   UNL     1      -6.604  12.177  15.576  0.00  0.00    -0.343 OA
ATOM     25  C   UNL     1      -6.944  13.121  14.529  0.00  0.00    +0.198 C 
ENDBRANCH  12  24
BRANCH  14  26
ATOM     26  O   UNL     1      -3.103  11.104  12.405  0.00  0.00    -0.390 OA
ATOM     27  H   UNL     1      -3.714  11.691  11.954  0.00  0.00    +0.210 HD
ENDBRANCH  14  26
ENDBRANCH   9  10
BRANCH   9  28
ATOM     28  O   UNL     1      -4.927   7.204  15.064  0.00  0.00    -0.387 OA
ATOM     29  H   UNL     1      -5.546   6.572  15.437  0.00  0.00    +0.210 HD
ENDBRANCH   9  28
ENDBRANCH   6   9
ENDBRANCH   5   6
ENDBRANCH   3   5
BRANCH   1  30
ATOM     30  O   UNL     1      -7.132   6.247  21.192  0.00  0.00    -0.444 OA
BRANCH  30  31
ATOM     31  C   UNL     1      -8.152   7.189  20.846  0.00  0.00    +0.292 C 
BRANCH  31  33
ATOM     32  N   UNL     1      -7.520   9.293  19.689  0.00  0.00    -0.131 NA
ATOM     33  C   UNL     1      -7.623   8.568  20.848  0.00  0.00    +0.120 A 
ATOM     34  C   UNL     1      -7.145   9.327  21.892  0.00  0.00    +0.137 A 
ATOM     35  N   UNL     1      -6.722  10.480  21.299  0.00  0.00    -0.251 N 
ATOM     36  N   UNL     1      -6.968  10.464  19.978  0.00  0.00    -0.065 NA
BRANCH  35  37
ATOM     37  C   UNL     1      -5.947  11.563  21.889  0.00  0.00    +0.160 C 
BRANCH  37  38
ATOM     38  C   UNL     1      -4.714  11.092  22.665  0.00  0.00    +0.131 C 
BRANCH  38  39
ATOM     39  C   UNL     1      -3.732  10.513  21.655  0.00  0.00    +0.311 C 
ATOM     40  O   UNL     1      -2.931   9.634  21.936  0.00  0.00    -0.251 OA
BRANCH  39  41
ATOM     41  O   UNL     1      -3.850  10.937  20.379  0.00  0.00    -0.480 OA
ATOM     42  H   UNL     1      -3.401  11.757  20.115  0.00  0.00    +0.295 HD
ENDBRANCH  39  41
ENDBRANCH  38  39
BRANCH  38  43
ATOM     43  C   UNL     1      -4.051  12.185  23.562  0.00  0.00    +0.064 C 
BRANCH  43  44
ATOM     44  C   UNL     1      -4.583  13.608  23.377  0.00  0.00    -0.039 A 
ATOM     45  C   UNL     1      -4.009  14.446  22.402  0.00  0.00    +0.004 A 
ATOM     46  C   UNL     1      -4.471  15.752  22.207  0.00  0.00    +0.000 A 
ATOM     47  C   UNL     1      -5.504  16.251  22.995  0.00  0.00    +0.000 A 
ATOM     48  C   UNL     1      -6.071  15.445  23.976  0.00  0.00    +0.000 A 
ATOM     49  C   UNL     1      -5.622  14.132  24.160  0.00  0.00    +0.004 A 
ENDBRANCH  43  44
BRANCH  43  50
ATOM     50  C   UNL     1      -4.044  11.735  25.028  0.00  0.00    -0.039 A 
ATOM     51  C   UNL     1      -5.123  11.004  25.552  0.00  0.00    +0.004 A 
ATOM     52  C   UNL     1      -5.202  10.740  26.924  0.00  0.00    +0.000 A 
ATOM     53  C   UNL     1      -4.197  11.178  27.783  0.00  0.00    +0.000 A 
ATOM     54  C   UNL     1      -3.105  11.869  27.274  0.00  0.00    +0.000 A 
ATOM     55  C   UNL     1      -3.029  12.145  25.909  0.00  0.00    +0.004 A 
ENDBRANCH  43  50
ENDBRANCH  38  43
ENDBRANCH  37  38
ENDBRANCH  35  37
ENDBRANCH  31  33
ENDBRANCH  30  31
ENDBRANCH   1  30
TORSDOF 20
