REMARK VINA RESULT:    -5.075      8.278     11.946
REMARK INTER + INTRA:         -12.141
REMARK INTER:                  -8.768
REMARK INTRA:                  -3.374
REMARK UNBOUND:                -3.358
REMARK  Name = lig_assembled_42.pdb
REMARK  16 active torsions:
REMARK  status: ('A' for Active; 'I' for Inactive)
REMARK    1  A    between atoms: _2  and  _9
REMARK    2  A    between atoms: _4  and  _21
REMARK    3  A    between atoms: _6  and  _7
REMARK    4  A    between atoms: _6  and  _21
REMARK    5  A    between atoms: _17  and  _37
REMARK    6  A    between atoms: _19  and  _25
REMARK    7  A    between atoms: _20  and  _24
REMARK    8  A    between atoms: _24  and  _25
REMARK    9  A    between atoms: _27  and  _28
REMARK   10  A    between atoms: _29  and  _30
REMARK   11  A    between atoms: _31  and  _33
REMARK   12  A    between atoms: _33  and  _34
REMARK   13  A    between atoms: _33  and  _35
REMARK   14  A    between atoms: _35  and  _36
REMARK   15  A    between atoms: _35  and  _37
REMARK   16  A    between atoms: _38  and  _40
REMARK                            x       y       z     vdW  Elec       q    Type
REMARK                         _______ _______ _______ _____ _____    ______ ____
ROOT
ATOM      1  C   UNL     1      -3.063  11.497  23.284  0.00  0.00    +0.163 C 
ENDROOT
BRANCH   1   2
ATOM      2  O   UNL     1      -2.387  11.853  24.501  0.00  0.00    -0.388 OA
ATOM      3  H   UNL     1      -2.572  11.195  25.175  0.00  0.00    +0.210 HD
ENDBRANCH   1   2
BRANCH   1   4
ATOM      4  C   UNL     1      -4.008  12.619  22.864  0.00  0.00    +0.141 C 
BRANCH   4   7
ATOM      5  C   UNL     1      -5.739  13.887  24.088  0.00  0.00    +0.401 C 
ATOM      6  O   UNL     1      -6.576  13.796  23.187  0.00  0.00    -0.226 OA
ATOM      7  N   UNL     1      -4.511  13.372  24.019  0.00  0.00    -0.279 N 
ATOM      8  H   UNL     1      -3.892  13.507  24.806  0.00  0.00    +0.152 HD
BRANCH   5   9
ATOM      9  O   UNL     1      -6.082  14.587  25.287  0.00  0.00    -0.444 OA
BRANCH   9  10
ATOM     10  C   UNL     1      -6.654  13.673  26.226  0.00  0.00    +0.292 C 
BRANCH  10  12
ATOM     11  N   UNL     1      -4.622  12.412  26.885  0.00  0.00    -0.131 NA
ATOM     12  C   UNL     1      -5.646  13.250  27.217  0.00  0.00    +0.121 A 
ATOM     13  C   UNL     1      -5.543  13.578  28.547  0.00  0.00    +0.143 A 
ATOM     14  N   UNL     1      -4.427  12.913  28.996  0.00  0.00    -0.220 N 
ATOM     15  N   UNL     1      -3.883  12.211  27.971  0.00  0.00    -0.060 NA
BRANCH  14  16
ATOM     16  C   UNL     1      -3.874  12.907  30.301  0.00  0.00    +0.071 A 
ATOM     17  C   UNL     1      -3.405  14.100  30.871  0.00  0.00    +0.077 A 
ATOM     18  C   UNL     1      -2.877  14.043  32.142  0.00  0.00    +0.168 A 
ATOM     19  O   UNL     1      -2.385  15.104  32.834  0.00  0.00    -0.453 OA
ATOM     20  C   UNL     1      -1.993  14.464  34.065  0.00  0.00    +0.466 C 
ATOM     21  O   UNL     1      -2.249  13.042  34.079  0.00  0.00    -0.453 OA
ATOM     22  C   UNL     1      -2.802  12.868  32.849  0.00  0.00    +0.166 A 
ATOM     23  C   UNL     1      -3.251  11.676  32.322  0.00  0.00    +0.051 A 
ATOM     24  C   UNL     1      -3.795  11.696  31.030  0.00  0.00    +0.031 A 
ENDBRANCH  14  16
ENDBRANCH  10  12
ENDBRANCH   9  10
ENDBRANCH   5   9
ENDBRANCH   4   7
ENDBRANCH   1   4
BRANCH   1  25
ATOM     25  C   UNL     1      -3.861  10.193  23.459  0.00  0.00    +0.175 C 
BRANCH  25  26
ATOM     26  C   UNL     1      -3.836   9.691  24.911  0.00  0.00    +0.176 C 
ATOM     27  O   UNL     1      -2.826   8.650  25.007  0.00  0.00    -0.332 OA
ATOM     28  C   UNL     1      -2.586   8.122  26.353  0.00  0.00    +0.277 C 
ATOM     29  C   UNL     1      -3.910   7.626  26.984  0.00  0.00    +0.110 C 
ATOM     30  C   UNL     1      -5.024   8.689  26.877  0.00  0.00    +0.143 C 
ATOM     31  C   UNL     1      -5.187   9.170  25.435  0.00  0.00    +0.133 C 
BRANCH  31  32
ATOM     32  N   UNL     1      -6.190  10.244  25.360  0.00  0.00    -0.308 N 
ATOM     33  H   UNL     1      -6.041  11.069  25.923  0.00  0.00    +0.149 HD
ATOM     34  C   UNL     1      -7.286  10.198  24.597  0.00  0.00    +0.210 C 
ATOM     35  C   UNL     1      -7.499   8.916  23.771  0.00  0.00    +0.109 C 
ATOM     36  O   UNL     1      -8.102  11.119  24.543  0.00  0.00    -0.276 OA
ENDBRANCH  31  32
BRANCH  28  37
ATOM     37  C   UNL     1      -1.955   9.200  27.259  0.00  0.00    +0.414 C 
ATOM     38  O   UNL     1      -1.248  10.082  26.773  0.00  0.00    -0.240 OA
ATOM     39  O   UNL     1      -2.153   9.188  28.474  0.00  0.00    -0.240 OA
ENDBRANCH  28  37
BRANCH  30  40
ATOM     40  O   UNL     1      -6.261   8.137  27.332  0.00  0.00    -0.390 OA
ATOM     41  H   UNL     1      -6.273   8.124  28.291  0.00  0.00    +0.210 HD
ENDBRANCH  30  40
BRANCH  28  42
ATOM     42  O   UNL     1      -1.683   6.992  26.238  0.00  0.00    -0.343 OA
ATOM     43  C   UNL     1      -2.324   5.724  25.947  0.00  0.00    +0.198 C 
ENDBRANCH  28  42
ENDBRANCH  25  26
BRANCH  25  44
ATOM     44  O   UNL     1      -3.351   9.176  22.574  0.00  0.00    -0.387 OA
ATOM     45  H   UNL     1      -3.795   8.344  22.752  0.00  0.00    +0.210 HD
ENDBRANCH  25  44
ENDBRANCH   1  25
TORSDOF 14
