REMARK VINA RESULT:    -3.718      2.649      6.482
REMARK INTER + INTRA:         -10.869
REMARK INTER:                  -7.637
REMARK INTRA:                  -3.232
REMARK UNBOUND:                -4.108
REMARK  Name = lig_assembled_53.pdb
REMARK  18 active torsions:
REMARK  status: ('A' for Active; 'I' for Inactive)
REMARK    1  A    between atoms: _2  and  _9
REMARK    2  A    between atoms: _4  and  _16
REMARK    3  A    between atoms: _5  and  _9
REMARK    4  A    between atoms: _5  and  _10
REMARK    5  A    between atoms: _6  and  _7
REMARK    6  A    between atoms: _6  and  _16
REMARK    7  A    between atoms: _12  and  _32
REMARK    8  A    between atoms: _14  and  _20
REMARK    9  A    between atoms: _15  and  _19
REMARK   10  A    between atoms: _19  and  _20
REMARK   11  A    between atoms: _22  and  _23
REMARK   12  A    between atoms: _24  and  _25
REMARK   13  A    between atoms: _26  and  _28
REMARK   14  A    between atoms: _28  and  _29
REMARK   15  A    between atoms: _28  and  _30
REMARK   16  A    between atoms: _30  and  _31
REMARK   17  A    between atoms: _30  and  _32
REMARK   18  A    between atoms: _33  and  _35
REMARK                            x       y       z     vdW  Elec       q    Type
REMARK                         _______ _______ _______ _____ _____    ______ ____
ROOT
ATOM      1  C   UNL     1      -3.959  12.649  24.126  0.00  0.00    +0.175 C 
ENDROOT
BRANCH   1   2
ATOM      2  C   UNL     1      -5.069  12.304  23.122  0.00  0.00    +0.176 C 
ATOM      3  O   UNL     1      -4.581  11.234  22.267  0.00  0.00    -0.332 OA
ATOM      4  C   UNL     1      -5.551  10.697  21.307  0.00  0.00    +0.277 C 
ATOM      5  C   UNL     1      -6.139  11.836  20.438  0.00  0.00    +0.110 C 
ATOM      6  C   UNL     1      -6.642  13.011  21.303  0.00  0.00    +0.143 C 
ATOM      7  C   UNL     1      -5.555  13.488  22.266  0.00  0.00    +0.133 C 
BRANCH   7   8
ATOM      8  N   UNL     1      -6.074  14.549  23.144  0.00  0.00    -0.308 N 
ATOM      9  H   UNL     1      -6.828  14.313  23.774  0.00  0.00    +0.149 HD
ATOM     10  C   UNL     1      -5.614  15.802  23.163  0.00  0.00    +0.210 C 
ATOM     11  C   UNL     1      -4.482  16.137  22.173  0.00  0.00    +0.109 C 
ATOM     12  O   UNL     1      -6.058  16.667  23.920  0.00  0.00    -0.276 OA
ENDBRANCH   7   8
BRANCH   4  13
ATOM     13  C   UNL     1      -6.694   9.963  22.038  0.00  0.00    +0.414 C 
ATOM     14  O   UNL     1      -6.452   9.257  23.016  0.00  0.00    -0.240 OA
ATOM     15  O   UNL     1      -7.858  10.077  21.650  0.00  0.00    -0.240 OA
ENDBRANCH   4  13
BRANCH   4  16
ATOM     16  O   UNL     1      -4.854   9.770  20.436  0.00  0.00    -0.343 OA
ATOM     17  C   UNL     1      -4.858  10.129  19.031  0.00  0.00    +0.198 C 
ENDBRANCH   4  16
BRANCH   6  18
ATOM     18  O   UNL     1      -7.034  14.095  20.461  0.00  0.00    -0.390 OA
ATOM     19  H   UNL     1      -7.978  14.248  20.553  0.00  0.00    +0.210 HD
ENDBRANCH   6  18
ENDBRANCH   1   2
BRANCH   1  20
ATOM     20  O   UNL     1      -2.845  13.259  23.444  0.00  0.00    -0.387 OA
ATOM     21  H   UNL     1      -2.324  12.579  23.010  0.00  0.00    +0.210 HD
ENDBRANCH   1  20
BRANCH   1  22
ATOM     22  C   UNL     1      -3.487  11.416  24.914  0.00  0.00    +0.163 C 
BRANCH  22  23
ATOM     23  O   UNL     1      -4.561  10.477  25.092  0.00  0.00    -0.388 OA
ATOM     24  H   UNL     1      -5.247  10.874  25.634  0.00  0.00    +0.210 HD
ENDBRANCH  22  23
BRANCH  22  25
ATOM     25  C   UNL     1      -2.948  11.854  26.272  0.00  0.00    +0.141 C 
BRANCH  25  28
ATOM     26  C   UNL     1      -1.880   9.804  27.145  0.00  0.00    +0.401 C 
ATOM     27  O   UNL     1      -0.991   9.790  26.291  0.00  0.00    -0.226 OA
ATOM     28  N   UNL     1      -2.840  10.728  27.208  0.00  0.00    -0.279 N 
ATOM     29  H   UNL     1      -3.531  10.649  27.940  0.00  0.00    +0.152 HD
BRANCH  26  30
ATOM     30  O   UNL     1      -1.907   8.774  28.137  0.00  0.00    -0.444 OA
BRANCH  30  31
ATOM     31  C   UNL     1      -3.253   8.329  28.328  0.00  0.00    +0.292 C 
BRANCH  31  33
ATOM     32  N   UNL     1      -4.991   8.136  26.574  0.00  0.00    -0.131 NA
ATOM     33  C   UNL     1      -3.784   7.741  27.084  0.00  0.00    +0.120 A 
ATOM     34  C   UNL     1      -3.242   6.779  26.263  0.00  0.00    +0.137 A 
ATOM     35  N   UNL     1      -4.193   6.583  25.307  0.00  0.00    -0.241 N 
ATOM     36  N   UNL     1      -5.223   7.436  25.473  0.00  0.00    -0.065 NA
BRANCH  35  37
ATOM     37  C   UNL     1      -4.172   5.750  24.122  0.00  0.00    +0.265 C 
BRANCH  37  38
ATOM     38  C   UNL     1      -3.506   6.360  22.918  0.00  0.00    +0.326 C 
ATOM     39  O   UNL     1      -2.478   5.977  22.380  0.00  0.00    -0.249 OA
BRANCH  38  40
ATOM     40  O   UNL     1      -4.172   7.450  22.452  0.00  0.00    -0.479 OA
ATOM     41  H   UNL     1      -5.117   7.506  22.689  0.00  0.00    +0.295 HD
ENDBRANCH  38  40
ENDBRANCH  37  38
ENDBRANCH  35  37
ENDBRANCH  31  33
ENDBRANCH  30  31
ENDBRANCH  26  30
ENDBRANCH  25  28
ENDBRANCH  22  25
ENDBRANCH   1  22
TORSDOF 16
