REMARK VINA RESULT:    -3.883      2.431      7.802
REMARK INTER + INTRA:          -9.996
REMARK INTER:                  -6.807
REMARK INTRA:                  -3.188
REMARK UNBOUND:                -2.934
REMARK  Name = lig_assembled_72.pdb
REMARK  20 active torsions:
REMARK  status: ('A' for Active; 'I' for Inactive)
REMARK    1  A    between atoms: _2  and  _9
REMARK    2  A    between atoms: _4  and  _17
REMARK    3  A    between atoms: _5  and  _9
REMARK    4  A    between atoms: _5  and  _12
REMARK    5  A    between atoms: _6  and  _7
REMARK    6  A    between atoms: _6  and  _17
REMARK    7  A    between atoms: _9  and  _10
REMARK    8  A    between atoms: _9  and  _11
REMARK    9  A    between atoms: _13  and  _33
REMARK   10  A    between atoms: _15  and  _21
REMARK   11  A    between atoms: _16  and  _20
REMARK   12  A    between atoms: _20  and  _21
REMARK   13  A    between atoms: _23  and  _24
REMARK   14  A    between atoms: _25  and  _26
REMARK   15  A    between atoms: _27  and  _29
REMARK   16  A    between atoms: _29  and  _30
REMARK   17  A    between atoms: _29  and  _31
REMARK   18  A    between atoms: _31  and  _32
REMARK   19  A    between atoms: _31  and  _33
REMARK   20  A    between atoms: _34  and  _36
REMARK                            x       y       z     vdW  Elec       q    Type
REMARK                         _______ _______ _______ _____ _____    ______ ____
ROOT
ATOM      1  C   UNL     1      -4.452   9.521  24.417  0.00  0.00    +0.163 C 
ENDROOT
BRANCH   1   2
ATOM      2  O   UNL     1      -5.102   9.234  23.169  0.00  0.00    -0.388 OA
ATOM      3  H   UNL     1      -4.925   9.942  22.545  0.00  0.00    +0.210 HD
ENDBRANCH   1   2
BRANCH   1   4
ATOM      4  C   UNL     1      -5.198  10.627  25.184  0.00  0.00    +0.175 C 
BRANCH   4   5
ATOM      5  C   UNL     1      -5.788  11.686  24.242  0.00  0.00    +0.176 C 
ATOM      6  O   UNL     1      -4.792  11.985  23.225  0.00  0.00    -0.332 OA
ATOM      7  C   UNL     1      -5.222  12.906  22.169  0.00  0.00    +0.277 C 
ATOM      8  C   UNL     1      -5.753  14.224  22.783  0.00  0.00    +0.110 C 
ATOM      9  C   UNL     1      -6.792  13.957  23.892  0.00  0.00    +0.143 C 
ATOM     10  C   UNL     1      -6.242  12.984  24.936  0.00  0.00    +0.133 C 
BRANCH  10  11
ATOM     11  N   UNL     1      -7.271  12.670  25.940  0.00  0.00    -0.308 N 
ATOM     12  H   UNL     1      -8.065  12.119  25.645  0.00  0.00    +0.149 HD
ATOM     13  C   UNL     1      -7.224  13.065  27.215  0.00  0.00    +0.210 C 
ATOM     14  C   UNL     1      -6.014  13.924  27.627  0.00  0.00    +0.109 C 
ATOM     15  O   UNL     1      -8.093  12.774  28.038  0.00  0.00    -0.276 OA
ENDBRANCH  10  11
BRANCH   7  16
ATOM     16  C   UNL     1      -6.320  12.263  21.296  0.00  0.00    +0.414 C 
ATOM     17  O   UNL     1      -7.145  12.970  20.717  0.00  0.00    -0.240 OA
ATOM     18  O   UNL     1      -6.382  11.040  21.172  0.00  0.00    -0.240 OA
ENDBRANCH   7  16
BRANCH   9  19
ATOM     19  O   UNL     1      -7.141  15.185  24.532  0.00  0.00    -0.390 OA
ATOM     20  H   UNL     1      -8.056  15.148  24.820  0.00  0.00    +0.210 HD
ENDBRANCH   9  19
BRANCH   7  21
ATOM     21  O   UNL     1      -4.066  13.217  21.348  0.00  0.00    -0.343 OA
ATOM     22  C   UNL     1      -3.022  12.211  21.354  0.00  0.00    +0.198 C 
ENDBRANCH   7  21
ENDBRANCH   4   5
BRANCH   4  23
ATOM     23  O   UNL     1      -4.317  11.248  26.142  0.00  0.00    -0.387 OA
ATOM     24  H   UNL     1      -4.364  10.774  26.975  0.00  0.00    +0.210 HD
ENDBRANCH   4  23
ENDBRANCH   1   4
BRANCH   1  25
ATOM     25  C   UNL     1      -4.387   8.261  25.274  0.00  0.00    +0.141 C 
BRANCH  25  28
ATOM     26  C   UNL     1      -2.577   8.277  26.955  0.00  0.00    +0.401 C 
ATOM     27  O   UNL     1      -1.742   7.774  26.199  0.00  0.00    -0.226 OA
ATOM     28  N   UNL     1      -3.838   8.534  26.608  0.00  0.00    -0.279 N 
ATOM     29  H   UNL     1      -4.451   8.939  27.302  0.00  0.00    +0.152 HD
BRANCH  26  30
ATOM     30  O   UNL     1      -2.191   8.609  28.292  0.00  0.00    -0.444 OA
BRANCH  30  31
ATOM     31  C   UNL     1      -3.356   8.694  29.118  0.00  0.00    +0.292 C 
BRANCH  31  33
ATOM     32  N   UNL     1      -3.739  11.135  29.009  0.00  0.00    -0.131 NA
ATOM     33  C   UNL     1      -3.441  10.023  29.748  0.00  0.00    +0.120 A 
ATOM     34  C   UNL     1      -3.262  10.394  31.063  0.00  0.00    +0.137 A 
ATOM     35  N   UNL     1      -3.465  11.747  31.063  0.00  0.00    -0.244 N 
ATOM     36  N   UNL     1      -3.750  12.181  29.819  0.00  0.00    -0.065 NA
BRANCH  35  37
ATOM     37  C   UNL     1      -3.407  12.676  32.201  0.00  0.00    +0.083 C 
ATOM     38  C   UNL     1      -3.813  11.930  33.485  0.00  0.00    +0.038 C 
ATOM     39  C   UNL     1      -4.377  13.850  31.960  0.00  0.00    +0.038 C 
BRANCH  37  40
ATOM     40  C   UNL     1      -1.973  13.236  32.411  0.00  0.00    +0.185 C 
BRANCH  40  41
ATOM     41  O   UNL     1      -1.470  13.911  31.259  0.00  0.00    -0.393 OA
ATOM     42  H   UNL     1      -2.201  13.907  30.604  0.00  0.00    +0.209 HD
ENDBRANCH  40  41
ENDBRANCH  37  40
ENDBRANCH  35  37
ENDBRANCH  31  33
ENDBRANCH  30  31
ENDBRANCH  26  30
ENDBRANCH  25  28
ENDBRANCH   1  25
TORSDOF 16
