REMARK VINA RESULT:    -4.946      1.622      1.842
REMARK INTER + INTRA:         -11.737
REMARK INTER:                  -8.683
REMARK INTRA:                  -3.054
REMARK UNBOUND:                -2.453
REMARK  Name = lig_assembled_75.pdb
REMARK  19 active torsions:
REMARK  status: ('A' for Active; 'I' for Inactive)
REMARK    1  A    between atoms: _2  and  _9
REMARK    2  A    between atoms: _4  and  _23
REMARK    3  A    between atoms: _6  and  _7
REMARK    4  A    between atoms: _6  and  _23
REMARK    5  A    between atoms: _11  and  _12
REMARK    6  A    between atoms: _13  and  _14
REMARK    7  A    between atoms: _14  and  _17
REMARK    8  A    between atoms: _19  and  _39
REMARK    9  A    between atoms: _21  and  _27
REMARK   10  A    between atoms: _22  and  _26
REMARK   11  A    between atoms: _26  and  _27
REMARK   12  A    between atoms: _29  and  _30
REMARK   13  A    between atoms: _31  and  _32
REMARK   14  A    between atoms: _33  and  _35
REMARK   15  A    between atoms: _35  and  _36
REMARK   16  A    between atoms: _35  and  _37
REMARK   17  A    between atoms: _37  and  _38
REMARK   18  A    between atoms: _37  and  _39
REMARK   19  A    between atoms: _40  and  _42
REMARK                            x       y       z     vdW  Elec       q    Type
REMARK                         _______ _______ _______ _____ _____    ______ ____
ROOT
ATOM      1  C   UNL     1      -3.026  13.191  24.337  0.00  0.00    +0.141 C 
ENDROOT
BRANCH   1   4
ATOM      2  C   UNL     1      -4.465  14.327  22.680  0.00  0.00    +0.401 C 
ATOM      3  O   UNL     1      -3.668  15.246  22.478  0.00  0.00    -0.226 OA
ATOM      4  N   UNL     1      -4.249  13.328  23.536  0.00  0.00    -0.279 N 
ATOM      5  H   UNL     1      -4.967  12.625  23.640  0.00  0.00    +0.152 HD
BRANCH   2   6
ATOM      6  O   UNL     1      -5.704  14.313  21.967  0.00  0.00    -0.444 OA
BRANCH   6   7
ATOM      7  C   UNL     1      -6.184  12.969  21.868  0.00  0.00    +0.292 C 
BRANCH   7   9
ATOM      8  N   UNL     1      -4.460  11.684  20.646  0.00  0.00    -0.131 NA
ATOM      9  C   UNL     1      -5.664  12.327  20.646  0.00  0.00    +0.121 A 
ATOM     10  C   UNL     1      -6.216  12.251  19.389  0.00  0.00    +0.143 A 
ATOM     11  N   UNL     1      -5.304  11.544  18.641  0.00  0.00    -0.220 N 
ATOM     12  N   UNL     1      -4.247  11.212  19.425  0.00  0.00    -0.060 NA
BRANCH  11  13
ATOM     13  C   UNL     1      -5.354  11.198  17.267  0.00  0.00    +0.068 A 
ATOM     14  C   UNL     1      -4.271  10.514  16.689  0.00  0.00    +0.035 A 
ATOM     15  C   UNL     1      -4.258  10.215  15.318  0.00  0.00    -0.023 A 
ATOM     16  C   UNL     1      -5.377  10.554  14.546  0.00  0.00    +0.008 A 
ATOM     17  C   UNL     1      -6.466  11.213  15.120  0.00  0.00    +0.003 A 
ATOM     18  C   UNL     1      -6.455  11.544  16.475  0.00  0.00    +0.028 A 
BRANCH  15  19
ATOM     19  C   UNL     1      -3.125   9.542  14.666  0.00  0.00    +0.015 C 
ATOM     20  C   UNL     1      -3.116   8.239  14.344  0.00  0.00    +0.092 C 
BRANCH  20  21
ATOM     21  C   UNL     1      -1.909   7.643  13.740  0.00  0.00    +0.330 C 
ATOM     22  O   UNL     1      -1.150   6.881  14.312  0.00  0.00    -0.246 OA
BRANCH  21  23
ATOM     23  O   UNL     1      -1.742   8.031  12.459  0.00  0.00    -0.478 OA
ATOM     24  H   UNL     1      -2.561   8.184  11.955  0.00  0.00    +0.295 HD
ENDBRANCH  21  23
ENDBRANCH  20  21
ENDBRANCH  15  19
ENDBRANCH  11  13
ENDBRANCH   7   9
ENDBRANCH   6   7
ENDBRANCH   2   6
ENDBRANCH   1   4
BRANCH   1  25
ATOM     25  C   UNL     1      -2.798  11.752  24.786  0.00  0.00    +0.163 C 
BRANCH  25  26
ATOM     26  O   UNL     1      -3.023  11.636  26.200  0.00  0.00    -0.388 OA
ATOM     27  H   UNL     1      -3.572  12.365  26.498  0.00  0.00    +0.210 HD
ENDBRANCH  25  26
BRANCH  25  28
ATOM     28  C   UNL     1      -3.733  10.815  24.002  0.00  0.00    +0.175 C 
BRANCH  28  29
ATOM     29  C   UNL     1      -4.132   9.579  24.821  0.00  0.00    +0.176 C 
ATOM     30  O   UNL     1      -2.914   8.960  25.319  0.00  0.00    -0.332 OA
ATOM     31  C   UNL     1      -3.106   7.817  26.217  0.00  0.00    +0.277 C 
ATOM     32  C   UNL     1      -4.001   6.746  25.547  0.00  0.00    +0.110 C 
ATOM     33  C   UNL     1      -5.294   7.363  24.974  0.00  0.00    +0.143 C 
ATOM     34  C   UNL     1      -4.979   8.544  24.056  0.00  0.00    +0.133 C 
BRANCH  34  35
ATOM     35  N   UNL     1      -6.221   9.177  23.585  0.00  0.00    -0.308 N 
ATOM     36  H   UNL     1      -6.776   9.685  24.260  0.00  0.00    +0.149 HD
ATOM     37  C   UNL     1      -6.662   9.124  22.326  0.00  0.00    +0.210 C 
ATOM     38  C   UNL     1      -5.807   8.320  21.329  0.00  0.00    +0.109 C 
ATOM     39  O   UNL     1      -7.699   9.676  21.957  0.00  0.00    -0.276 OA
ENDBRANCH  34  35
BRANCH  31  40
ATOM     40  C   UNL     1      -3.747   8.267  27.546  0.00  0.00    +0.414 C 
ATOM     41  O   UNL     1      -3.846   7.479  28.486  0.00  0.00    -0.240 OA
ATOM     42  O   UNL     1      -4.166   9.418  27.679  0.00  0.00    -0.240 OA
ENDBRANCH  31  40
BRANCH  31  43
ATOM     43  O   UNL     1      -1.805   7.228  26.478  0.00  0.00    -0.343 OA
ATOM     44  C   UNL     1      -1.745   5.787  26.331  0.00  0.00    +0.198 C 
ENDBRANCH  31  43
BRANCH  33  45
ATOM     45  O   UNL     1      -6.014   6.373  24.237  0.00  0.00    -0.390 OA
ATOM     46  H   UNL     1      -5.570   5.526  24.319  0.00  0.00    +0.210 HD
ENDBRANCH  33  45
ENDBRANCH  28  29
BRANCH  28  47
ATOM     47  O   UNL     1      -3.109  10.411  22.766  0.00  0.00    -0.387 OA
ATOM     48  H   UNL     1      -2.407  11.028  22.545  0.00  0.00    +0.210 HD
ENDBRANCH  28  47
ENDBRANCH  25  28
ENDBRANCH   1  25
TORSDOF 17
