REMARK VINA RESULT:    -5.439      3.354     10.241
REMARK INTER + INTRA:         -12.178
REMARK INTER:                  -8.833
REMARK INTRA:                  -3.345
REMARK UNBOUND:                -2.447
REMARK  Name = lig_assembled_85.pdb
REMARK  19 active torsions:
REMARK  status: ('A' for Active; 'I' for Inactive)
REMARK    1  A    between atoms: _2  and  _10
REMARK    2  A    between atoms: _3  and  _6
REMARK    3  A    between atoms: _3  and  _17
REMARK    4  A    between atoms: _5  and  _23
REMARK    5  A    between atoms: _7  and  _8
REMARK    6  A    between atoms: _7  and  _23
REMARK    7  A    between atoms: _15  and  _16
REMARK    8  A    between atoms: _19  and  _39
REMARK    9  A    between atoms: _21  and  _27
REMARK   10  A    between atoms: _22  and  _26
REMARK   11  A    between atoms: _26  and  _27
REMARK   12  A    between atoms: _29  and  _30
REMARK   13  A    between atoms: _31  and  _32
REMARK   14  A    between atoms: _33  and  _35
REMARK   15  A    between atoms: _35  and  _36
REMARK   16  A    between atoms: _35  and  _37
REMARK   17  A    between atoms: _37  and  _38
REMARK   18  A    between atoms: _37  and  _39
REMARK   19  A    between atoms: _40  and  _42
REMARK                            x       y       z     vdW  Elec       q    Type
REMARK                         _______ _______ _______ _____ _____    ______ ____
ROOT
ATOM      1  C   UNL     1      -5.440   6.862  17.647  0.00  0.00    +0.141 C 
ENDROOT
BRANCH   1   4
ATOM      2  C   UNL     1      -5.738   6.452  20.065  0.00  0.00    +0.401 C 
ATOM      3  O   UNL     1      -4.877   5.570  20.118  0.00  0.00    -0.226 OA
ATOM      4  N   UNL     1      -6.070   7.104  18.951  0.00  0.00    -0.279 N 
ATOM      5  H   UNL     1      -6.796   7.805  19.007  0.00  0.00    +0.152 HD
BRANCH   2   6
ATOM      6  O   UNL     1      -6.439   6.809  21.259  0.00  0.00    -0.444 OA
BRANCH   6   7
ATOM      7  C   UNL     1      -5.548   6.739  22.376  0.00  0.00    +0.292 C 
BRANCH   7   9
ATOM      8  N   UNL     1      -3.591   8.245  22.411  0.00  0.00    -0.131 NA
ATOM      9  C   UNL     1      -4.928   8.054  22.617  0.00  0.00    +0.121 A 
ATOM     10  C   UNL     1      -5.505   9.244  22.997  0.00  0.00    +0.143 A 
ATOM     11  N   UNL     1      -4.470  10.145  23.005  0.00  0.00    -0.219 N 
ATOM     12  N   UNL     1      -3.327   9.526  22.623  0.00  0.00    -0.060 NA
BRANCH  11  13
ATOM     13  C   UNL     1      -4.489  11.536  23.248  0.00  0.00    +0.080 A 
ATOM     14  C   UNL     1      -4.008  12.138  24.421  0.00  0.00    +0.062 A 
ATOM     15  C   UNL     1      -4.319  13.502  24.634  0.00  0.00    +0.016 A 
ATOM     16  C   UNL     1      -5.055  14.247  23.707  0.00  0.00    +0.021 A 
ATOM     17  C   UNL     1      -5.457  13.652  22.520  0.00  0.00    +0.043 A 
ATOM     18 CL   UNL     1      -6.394  14.542  21.385  0.00  0.00    -0.083 Cl
ATOM     19  C   UNL     1      -5.156  12.316  22.275  0.00  0.00    +0.048 A 
BRANCH  14  20
ATOM     20  C   UNL     1      -3.260  11.511  25.551  0.00  0.00    +0.248 C 
ATOM     21  O   UNL     1      -2.047  11.740  25.564  0.00  0.00    -0.270 OA
ATOM     22  N   UNL     1      -3.844  10.667  26.501  0.00  0.00    -0.304 N 
ATOM     23  C   UNL     1      -5.261  10.397  26.706  0.00  0.00    +0.132 C 
ATOM     24  C   UNL     1      -2.956  10.135  27.529  0.00  0.00    +0.132 C 
ENDBRANCH  14  20
ENDBRANCH  11  13
ENDBRANCH   7   9
ENDBRANCH   6   7
ENDBRANCH   2   6
ENDBRANCH   1   4
BRANCH   1  25
ATOM     25  C   UNL     1      -6.365   7.228  16.491  0.00  0.00    +0.163 C 
BRANCH  25  26
ATOM     26  O   UNL     1      -7.526   7.913  16.989  0.00  0.00    -0.388 OA
ATOM     27  H   UNL     1      -7.748   7.576  17.861  0.00  0.00    +0.210 HD
ENDBRANCH  25  26
BRANCH  25  28
ATOM     28  C   UNL     1      -5.604   8.100  15.479  0.00  0.00    +0.175 C 
BRANCH  28  29
ATOM     29  C   UNL     1      -4.972   9.334  16.140  0.00  0.00    +0.176 C 
ATOM     30  O   UNL     1      -6.047  10.159  16.667  0.00  0.00    -0.332 OA
ATOM     31  C   UNL     1      -5.627  11.337  17.431  0.00  0.00    +0.277 C 
ATOM     32  C   UNL     1      -4.662  12.210  16.591  0.00  0.00    +0.110 C 
ATOM     33  C   UNL     1      -3.518  11.371  15.983  0.00  0.00    +0.143 C 
ATOM     34  C   UNL     1      -4.069  10.170  15.213  0.00  0.00    +0.133 C 
BRANCH  34  35
ATOM     35  N   UNL     1      -2.969   9.331  14.712  0.00  0.00    -0.308 N 
ATOM     36  H   UNL     1      -2.419   8.820  15.389  0.00  0.00    +0.149 HD
ATOM     37  C   UNL     1      -2.649   9.201  13.422  0.00  0.00    +0.210 C 
ATOM     38  C   UNL     1      -3.488  10.013  12.418  0.00  0.00    +0.109 C 
ATOM     39  O   UNL     1      -1.731   8.479  13.030  0.00  0.00    -0.276 OA
ENDBRANCH  34  35
BRANCH  31  40
ATOM     40  C   UNL     1      -4.933  10.919  18.744  0.00  0.00    +0.414 C 
ATOM     41  O   UNL     1      -5.321   9.928  19.362  0.00  0.00    -0.240 OA
ATOM     42  O   UNL     1      -3.986  11.572  19.185  0.00  0.00    -0.240 OA
ENDBRANCH  31  40
BRANCH  33  43
ATOM     43  O   UNL     1      -2.744  12.182  15.098  0.00  0.00    -0.390 OA
ATOM     44  H   UNL     1      -2.305  12.874  15.599  0.00  0.00    +0.210 HD
ENDBRANCH  33  43
BRANCH  31  45
ATOM     45  O   UNL     1      -6.809  12.123  17.732  0.00  0.00    -0.343 OA
ATOM     46  C   UNL     1      -8.070  11.461  17.459  0.00  0.00    +0.198 C 
ENDBRANCH  31  45
ENDBRANCH  28  29
BRANCH  28  47
ATOM     47  O   UNL     1      -6.483   8.504  14.411  0.00  0.00    -0.387 OA
ATOM     48  H   UNL     1      -7.290   8.871  14.781  0.00  0.00    +0.210 HD
ENDBRANCH  28  47
ENDBRANCH  25  28
ENDBRANCH   1  25
TORSDOF 15
