REMARK VINA RESULT:    -4.710      3.024      5.765
REMARK INTER + INTRA:         -11.219
REMARK INTER:                  -8.107
REMARK INTRA:                  -3.112
REMARK UNBOUND:                -2.792
REMARK  Name = lig_assembled_5.pdb
REMARK  18 active torsions:
REMARK  status: ('A' for Active; 'I' for Inactive)
REMARK    1  A    between atoms: _2  and  _9
REMARK    2  A    between atoms: _4  and  _20
REMARK    3  A    between atoms: _6  and  _7
REMARK    4  A    between atoms: _6  and  _20
REMARK    5  A    between atoms: _12  and  _15
REMARK    6  A    between atoms: _13  and  _15
REMARK    7  A    between atoms: _16  and  _36
REMARK    8  A    between atoms: _18  and  _24
REMARK    9  A    between atoms: _19  and  _23
REMARK   10  A    between atoms: _23  and  _24
REMARK   11  A    between atoms: _26  and  _27
REMARK   12  A    between atoms: _28  and  _29
REMARK   13  A    between atoms: _30  and  _32
REMARK   14  A    between atoms: _32  and  _33
REMARK   15  A    between atoms: _32  and  _34
REMARK   16  A    between atoms: _34  and  _35
REMARK   17  A    between atoms: _34  and  _36
REMARK   18  A    between atoms: _37  and  _39
REMARK                            x       y       z     vdW  Elec       q    Type
REMARK                         _______ _______ _______ _____ _____    ______ ____
ROOT
ATOM      1  C   UNL     1      -2.256  10.502  26.409  0.00  0.00    +0.163 C 
ENDROOT
BRANCH   1   2
ATOM      2  O   UNL     1      -2.559   9.811  25.187  0.00  0.00    -0.388 OA
ATOM      3  H   UNL     1      -1.884  10.005  24.533  0.00  0.00    +0.210 HD
ENDBRANCH   1   2
BRANCH   1   4
ATOM      4  C   UNL     1      -1.797   9.508  27.471  0.00  0.00    +0.141 C 
BRANCH   4   7
ATOM      5  C   UNL     1      -2.706   8.462  29.517  0.00  0.00    +0.401 C 
ATOM      6  O   UNL     1      -1.856   7.569  29.551  0.00  0.00    -0.226 OA
ATOM      7  N   UNL     1      -2.758   9.406  28.577  0.00  0.00    -0.279 N 
ATOM      8  H   UNL     1      -3.499  10.091  28.628  0.00  0.00    +0.152 HD
BRANCH   5   9
ATOM      9  O   UNL     1      -3.710   8.504  30.534  0.00  0.00    -0.444 OA
BRANCH   9  10
ATOM     10  C   UNL     1      -3.116   8.890  31.776  0.00  0.00    +0.292 C 
BRANCH  10  12
ATOM     11  N   UNL     1      -1.886  11.019  32.053  0.00  0.00    -0.131 NA
ATOM     12  C   UNL     1      -3.069  10.361  31.887  0.00  0.00    +0.121 A 
ATOM     13  C   UNL     1      -4.092  11.279  31.843  0.00  0.00    +0.143 A 
ATOM     14  N   UNL     1      -3.476  12.504  31.959  0.00  0.00    -0.220 N 
ATOM     15  N   UNL     1      -2.141  12.319  32.104  0.00  0.00    -0.060 NA
BRANCH  14  16
ATOM     16  C   UNL     1      -4.057  13.798  31.914  0.00  0.00    +0.067 A 
ATOM     17  C   UNL     1      -5.273  14.062  32.555  0.00  0.00    +0.031 A 
ATOM     18  C   UNL     1      -5.859  15.325  32.447  0.00  0.00    +0.048 A 
ATOM     19  C   UNL     1      -5.237  16.343  31.722  0.00  0.00    +0.120 A 
ATOM     20  C   UNL     1      -4.018  16.090  31.096  0.00  0.00    +0.048 A 
ATOM     21  C   UNL     1      -3.428  14.822  31.189  0.00  0.00    +0.031 A 
BRANCH  19  22
ATOM     22  O   UNL     1      -5.946  17.510  31.645  0.00  0.00    -0.495 OA
ATOM     23  C   UNL     1      -5.283  18.612  31.041  0.00  0.00    +0.277 C 
ENDBRANCH  19  22
ENDBRANCH  14  16
ENDBRANCH  10  12
ENDBRANCH   9  10
ENDBRANCH   5   9
ENDBRANCH   4   7
ENDBRANCH   1   4
BRANCH   1  24
ATOM     24  C   UNL     1      -3.483  11.274  26.924  0.00  0.00    +0.175 C 
BRANCH  24  25
ATOM     25  C   UNL     1      -4.258  11.954  25.785  0.00  0.00    +0.176 C 
ATOM     26  O   UNL     1      -3.291  12.587  24.902  0.00  0.00    -0.332 OA
ATOM     27  C   UNL     1      -3.845  13.200  23.692  0.00  0.00    +0.277 C 
ATOM     28  C   UNL     1      -4.958  14.211  24.059  0.00  0.00    +0.110 C 
ATOM     29  C   UNL     1      -5.994  13.594  25.022  0.00  0.00    +0.143 C 
ATOM     30  C   UNL     1      -5.309  12.982  26.244  0.00  0.00    +0.133 C 
BRANCH  30  31
ATOM     31  N   UNL     1      -6.297  12.320  27.111  0.00  0.00    -0.308 N 
ATOM     32  H   UNL     1      -6.690  11.445  26.795  0.00  0.00    +0.149 HD
ATOM     33  C   UNL     1      -6.707  12.801  28.288  0.00  0.00    +0.210 C 
ATOM     34  C   UNL     1      -6.108  14.150  28.729  0.00  0.00    +0.109 C 
ATOM     35  O   UNL     1      -7.525  12.218  29.000  0.00  0.00    -0.276 OA
ENDBRANCH  30  31
BRANCH  27  36
ATOM     36  C   UNL     1      -4.417  12.124  22.745  0.00  0.00    +0.414 C 
ATOM     37  O   UNL     1      -5.368  12.387  22.011  0.00  0.00    -0.240 OA
ATOM     38  O   UNL     1      -3.927  10.995  22.716  0.00  0.00    -0.240 OA
ENDBRANCH  27  36
BRANCH  27  39
ATOM     39  O   UNL     1      -2.776  13.920  23.024  0.00  0.00    -0.343 OA
ATOM     40  C   UNL     1      -3.204  15.060  22.237  0.00  0.00    +0.198 C 
ENDBRANCH  27  39
BRANCH  29  41
ATOM     41  O   UNL     1      -6.912  14.599  25.451  0.00  0.00    -0.390 OA
ATOM     42  H   UNL     1      -7.810  14.271  25.367  0.00  0.00    +0.210 HD
ENDBRANCH  29  41
ENDBRANCH  24  25
BRANCH  24  43
ATOM     43  O   UNL     1      -3.080  12.252  27.903  0.00  0.00    -0.387 OA
ATOM     44  H   UNL     1      -2.287  12.701  27.600  0.00  0.00    +0.210 HD
ENDBRANCH  24  43
ENDBRANCH   1  24
TORSDOF 15
