REMARK VINA RESULT:    -3.685      4.463      8.955
REMARK INTER + INTRA:         -12.092
REMARK INTER:                  -8.895
REMARK INTRA:                  -3.197
REMARK UNBOUND:                -4.638
REMARK  Name = lig_assembled_11.pdb
REMARK  22 active torsions:
REMARK  status: ('A' for Active; 'I' for Inactive)
REMARK    1  A    between atoms: _2  and  _9
REMARK    2  A    between atoms: _4  and  _21
REMARK    3  A    between atoms: _5  and  _9
REMARK    4  A    between atoms: _5  and  _13
REMARK    5  A    between atoms: _6  and  _7
REMARK    6  A    between atoms: _6  and  _21
REMARK    7  A    between atoms: _9  and  _10
REMARK    8  A    between atoms: _10  and  _11
REMARK    9  A    between atoms: _11  and  _12
REMARK   10  A    between atoms: _12  and  _15
REMARK   11  A    between atoms: _17  and  _37
REMARK   12  A    between atoms: _19  and  _25
REMARK   13  A    between atoms: _20  and  _24
REMARK   14  A    between atoms: _24  and  _25
REMARK   15  A    between atoms: _27  and  _28
REMARK   16  A    between atoms: _29  and  _30
REMARK   17  A    between atoms: _31  and  _33
REMARK   18  A    between atoms: _33  and  _34
REMARK   19  A    between atoms: _33  and  _35
REMARK   20  A    between atoms: _35  and  _36
REMARK   21  A    between atoms: _35  and  _37
REMARK   22  A    between atoms: _38  and  _40
REMARK                            x       y       z     vdW  Elec       q    Type
REMARK                         _______ _______ _______ _____ _____    ______ ____
ROOT
ATOM      1  C   UNL     1      -3.029  12.578  23.144  0.00  0.00    +0.163 C 
ENDROOT
BRANCH   1   2
ATOM      2  O   UNL     1      -2.548  13.058  24.410  0.00  0.00    -0.388 OA
ATOM      3  H   UNL     1      -1.677  12.693  24.581  0.00  0.00    +0.210 HD
ENDBRANCH   1   2
BRANCH   1   4
ATOM      4  C   UNL     1      -3.801  11.258  23.312  0.00  0.00    +0.175 C 
BRANCH   4   5
ATOM      5  C   UNL     1      -3.803  10.772  24.769  0.00  0.00    +0.176 C 
ATOM      6  O   UNL     1      -3.376   9.382  24.778  0.00  0.00    -0.332 OA
ATOM      7  C   UNL     1      -3.215   8.777  26.104  0.00  0.00    +0.277 C 
ATOM      8  C   UNL     1      -4.517   8.929  26.929  0.00  0.00    +0.110 C 
ATOM      9  C   UNL     1      -5.028  10.385  26.922  0.00  0.00    +0.143 C 
ATOM     10  C   UNL     1      -5.154  10.916  25.494  0.00  0.00    +0.133 C 
BRANCH  10  11
ATOM     11  N   UNL     1      -5.559  12.331  25.504  0.00  0.00    -0.308 N 
ATOM     12  H   UNL     1      -4.913  13.003  25.894  0.00  0.00    +0.149 HD
ATOM     13  C   UNL     1      -6.723  12.784  25.031  0.00  0.00    +0.210 C 
ATOM     14  C   UNL     1      -7.695  11.732  24.467  0.00  0.00    +0.109 C 
ATOM     15  O   UNL     1      -7.028  13.977  25.039  0.00  0.00    -0.276 OA
ENDBRANCH  10  11
BRANCH   7  16
ATOM     16  C   UNL     1      -2.043   9.429  26.865  0.00  0.00    +0.414 C 
ATOM     17  O   UNL     1      -1.070   9.865  26.250  0.00  0.00    -0.240 OA
ATOM     18  O   UNL     1      -2.069   9.519  28.093  0.00  0.00    -0.240 OA
ENDBRANCH   7  16
BRANCH   7  19
ATOM     19  O   UNL     1      -2.953   7.361  25.921  0.00  0.00    -0.343 OA
ATOM     20  C   UNL     1      -3.903   6.474  26.564  0.00  0.00    +0.198 C 
ENDBRANCH   7  19
BRANCH   9  21
ATOM     21  O   UNL     1      -6.302  10.451  27.564  0.00  0.00    -0.390 OA
ATOM     22  H   UNL     1      -6.997  10.368  26.906  0.00  0.00    +0.210 HD
ENDBRANCH   9  21
ENDBRANCH   4   5
BRANCH   4  23
ATOM     23  O   UNL     1      -3.244  10.244  22.452  0.00  0.00    -0.387 OA
ATOM     24  H   UNL     1      -3.140  10.598  21.565  0.00  0.00    +0.210 HD
ENDBRANCH   4  23
ENDBRANCH   1   4
BRANCH   1  25
ATOM     25  C   UNL     1      -3.938  13.621  22.502  0.00  0.00    +0.141 C 
BRANCH  25  28
ATOM     26  C   UNL     1      -6.134  13.557  21.371  0.00  0.00    +0.401 C 
ATOM     27  O   UNL     1      -6.512  14.634  21.838  0.00  0.00    -0.226 OA
ATOM     28  N   UNL     1      -4.949  13.005  21.632  0.00  0.00    -0.279 N 
ATOM     29  H   UNL     1      -4.734  12.114  21.209  0.00  0.00    +0.152 HD
BRANCH  26  30
ATOM     30  O   UNL     1      -7.006  12.836  20.496  0.00  0.00    -0.444 OA
BRANCH  30  31
ATOM     31  C   UNL     1      -7.072  11.468  20.907  0.00  0.00    +0.292 C 
BRANCH  31  33
ATOM     32  N   UNL     1      -5.192   9.995  20.256  0.00  0.00    -0.131 NA
ATOM     33  C   UNL     1      -6.375  10.604  19.937  0.00  0.00    +0.120 A 
ATOM     34  C   UNL     1      -6.726  10.256  18.652  0.00  0.00    +0.138 A 
ATOM     35  N   UNL     1      -5.697   9.468  18.223  0.00  0.00    -0.238 N 
ATOM     36  N   UNL     1      -4.792   9.291  19.205  0.00  0.00    -0.065 NA
BRANCH  35  37
ATOM     37  C   UNL     1      -5.531   8.724  16.979  0.00  0.00    +0.217 C 
BRANCH  37  38
ATOM     38  C   UNL     1      -4.646   7.494  17.112  0.00  0.00    +0.330 C 
ATOM     39  O   UNL     1      -3.710   7.204  16.382  0.00  0.00    -0.249 OA
BRANCH  38  40
ATOM     40  O   UNL     1      -4.979   6.684  18.147  0.00  0.00    -0.479 OA
ATOM     41  H   UNL     1      -5.906   6.377  18.193  0.00  0.00    +0.295 HD
ENDBRANCH  38  40
ENDBRANCH  37  38
BRANCH  37  42
ATOM     42  C   UNL     1      -5.105   9.639  15.817  0.00  0.00    +0.049 C 
BRANCH  42  43
ATOM     43  C   UNL     1      -4.154  10.778  16.206  0.00  0.00    +0.123 C 
BRANCH  43  44
ATOM     44  C   UNL     1      -2.942  10.805  15.302  0.00  0.00    +0.305 C 
ATOM     45  O   UNL     1      -2.200   9.858  15.105  0.00  0.00    -0.251 OA
BRANCH  44  46
ATOM     46  O   UNL     1      -2.743  12.016  14.737  0.00  0.00    -0.481 OA
ATOM     47  H   UNL     1      -2.084  12.024  14.017  0.00  0.00    +0.295 HD
ENDBRANCH  44  46
ENDBRANCH  43  44
ENDBRANCH  42  43
ENDBRANCH  37  42
ENDBRANCH  35  37
ENDBRANCH  31  33
ENDBRANCH  30  31
ENDBRANCH  26  30
ENDBRANCH  25  28
ENDBRANCH   1  25
TORSDOF 20
