REMARK VINA RESULT:    -4.495      3.362      5.355
REMARK INTER + INTRA:         -11.549
REMARK INTER:                  -8.904
REMARK INTRA:                  -2.645
REMARK UNBOUND:                -3.243
REMARK  Name = lig_assembled_78.pdb
REMARK  18 active torsions:
REMARK  status: ('A' for Active; 'I' for Inactive)
REMARK    1  A    between atoms: _2  and  _9
REMARK    2  A    between atoms: _4  and  _21
REMARK    3  A    between atoms: _6  and  _7
REMARK    4  A    between atoms: _6  and  _21
REMARK    5  A    between atoms: _9  and  _41
REMARK    6  A    between atoms: _10  and  _41
REMARK    7  A    between atoms: _17  and  _37
REMARK    8  A    between atoms: _19  and  _25
REMARK    9  A    between atoms: _20  and  _24
REMARK   10  A    between atoms: _24  and  _25
REMARK   11  A    between atoms: _27  and  _28
REMARK   12  A    between atoms: _29  and  _30
REMARK   13  A    between atoms: _31  and  _33
REMARK   14  A    between atoms: _33  and  _34
REMARK   15  A    between atoms: _33  and  _35
REMARK   16  A    between atoms: _35  and  _36
REMARK   17  A    between atoms: _35  and  _37
REMARK   18  A    between atoms: _38  and  _40
REMARK                            x       y       z     vdW  Elec       q    Type
REMARK                         _______ _______ _______ _____ _____    ______ ____
ROOT
ATOM      1  C   UNL     1      -6.524   9.393  23.495  0.00  0.00    +0.163 C 
ENDROOT
BRANCH   1   2
ATOM      2  O   UNL     1      -7.207   9.195  24.744  0.00  0.00    -0.388 OA
ATOM      3  H   UNL     1      -6.723   8.559  25.276  0.00  0.00    +0.210 HD
ENDBRANCH   1   2
BRANCH   1   4
ATOM      4  C   UNL     1      -5.162   8.678  23.493  0.00  0.00    +0.175 C 
BRANCH   4   5
ATOM      5  C   UNL     1      -4.074   9.505  24.192  0.00  0.00    +0.176 C 
ATOM      6  O   UNL     1      -4.384   9.543  25.613  0.00  0.00    -0.332 OA
ATOM      7  C   UNL     1      -3.390  10.206  26.461  0.00  0.00    +0.277 C 
ATOM      8  C   UNL     1      -3.111  11.640  25.949  0.00  0.00    +0.110 C 
ATOM      9  C   UNL     1      -2.807  11.655  24.436  0.00  0.00    +0.143 C 
ATOM     10  C   UNL     1      -3.904  10.936  23.649  0.00  0.00    +0.133 C 
BRANCH  10  11
ATOM     11  N   UNL     1      -3.560  10.881  22.219  0.00  0.00    -0.308 N 
ATOM     12  H   UNL     1      -2.825  10.249  21.935  0.00  0.00    +0.149 HD
ATOM     13  C   UNL     1      -4.156  11.612  21.273  0.00  0.00    +0.210 C 
ATOM     14  C   UNL     1      -5.254  12.585  21.743  0.00  0.00    +0.109 C 
ATOM     15  O   UNL     1      -3.857  11.534  20.081  0.00  0.00    -0.276 OA
ENDBRANCH  10  11
BRANCH   7  16
ATOM     16  C   UNL     1      -2.072   9.403  26.490  0.00  0.00    +0.414 C 
ATOM     17  O   UNL     1      -2.095   8.173  26.490  0.00  0.00    -0.240 OA
ATOM     18  O   UNL     1      -0.987   9.985  26.512  0.00  0.00    -0.240 OA
ENDBRANCH   7  16
BRANCH   7  19
ATOM     19  O   UNL     1      -3.934  10.298  27.803  0.00  0.00    -0.343 OA
ATOM     20  C   UNL     1      -3.974  11.637  28.357  0.00  0.00    +0.198 C 
ENDBRANCH   7  19
BRANCH   9  21
ATOM     21  O   UNL     1      -2.707  13.004  23.978  0.00  0.00    -0.390 OA
ATOM     22  H   UNL     1      -1.932  13.096  23.418  0.00  0.00    +0.210 HD
ENDBRANCH   9  21
ENDBRANCH   4   5
BRANCH   4  23
ATOM     23  O   UNL     1      -4.763   8.373  22.142  0.00  0.00    -0.387 OA
ATOM     24  H   UNL     1      -3.811   8.464  22.061  0.00  0.00    +0.210 HD
ENDBRANCH   4  23
ENDBRANCH   1   4
BRANCH   1  25
ATOM     25  C   UNL     1      -7.377   8.867  22.345  0.00  0.00    +0.141 C 
BRANCH  25  28
ATOM     26  C   UNL     1      -7.027   9.850  20.105  0.00  0.00    +0.401 C 
ATOM     27  O   UNL     1      -6.257   8.963  19.733  0.00  0.00    -0.226 OA
ATOM     28  N   UNL     1      -7.593   9.888  21.312  0.00  0.00    -0.279 N 
ATOM     29  H   UNL     1      -8.204  10.663  21.529  0.00  0.00    +0.152 HD
BRANCH  26  30
ATOM     30  O   UNL     1      -7.345  10.916  19.207  0.00  0.00    -0.444 OA
BRANCH  30  31
ATOM     31  C   UNL     1      -7.413  10.411  17.871  0.00  0.00    +0.292 C 
BRANCH  31  33
ATOM     32  N   UNL     1      -6.562  12.277  16.479  0.00  0.00    -0.131 NA
ATOM     33  C   UNL     1      -6.374  11.038  17.032  0.00  0.00    +0.120 A 
ATOM     34  C   UNL     1      -5.132  10.568  16.669  0.00  0.00    +0.139 A 
ATOM     35  N   UNL     1      -4.592  11.590  15.947  0.00  0.00    -0.230 N 
ATOM     36  N   UNL     1      -5.471  12.596  15.795  0.00  0.00    -0.064 NA
BRANCH  35  37
ATOM     37  C   UNL     1      -3.302  11.659  15.307  0.00  0.00    +0.316 C 
BRANCH  37  38
ATOM     38  S   UNL     1      -3.353  11.312  13.567  0.00  0.00    +0.017 S 
ATOM     39  O   UNL     1      -2.124  10.663  13.156  0.00  0.00    -0.168 OA
ATOM     40  O   UNL     1      -4.645  10.719  13.268  0.00  0.00    -0.168 OA
BRANCH  38  41
ATOM     41  C   UNL     1      -3.332  12.920  12.803  0.00  0.00    +0.090 A 
ATOM     42  C   UNL     1      -3.174  14.055  13.605  0.00  0.00    +0.027 A 
ATOM     43  C   UNL     1      -3.132  15.314  13.008  0.00  0.00    +0.002 A 
ATOM     44  C   UNL     1      -3.227  15.435  11.621  0.00  0.00    +0.000 A 
ATOM     45  C   UNL     1      -3.365  14.297  10.824  0.00  0.00    +0.002 A 
ATOM     46  C   UNL     1      -3.419  13.033  11.413  0.00  0.00    +0.027 A 
ENDBRANCH  38  41
ENDBRANCH  37  38
ENDBRANCH  35  37
ENDBRANCH  31  33
ENDBRANCH  30  31
ENDBRANCH  26  30
ENDBRANCH  25  28
ENDBRANCH   1  25
TORSDOF 16
