REMARK VINA RESULT:    -4.485      2.999      5.072
REMARK INTER + INTRA:         -10.676
REMARK INTER:                  -8.259
REMARK INTRA:                  -2.417
REMARK UNBOUND:                -2.913
REMARK  Name = lig_assembled_93.pdb
REMARK  16 active torsions:
REMARK  status: ('A' for Active; 'I' for Inactive)
REMARK    1  A    between atoms: _2  and  _9
REMARK    2  A    between atoms: _4  and  _18
REMARK    3  A    between atoms: _6  and  _7
REMARK    4  A    between atoms: _6  and  _18
REMARK    5  A    between atoms: _14  and  _34
REMARK    6  A    between atoms: _16  and  _22
REMARK    7  A    between atoms: _17  and  _21
REMARK    8  A    between atoms: _21  and  _22
REMARK    9  A    between atoms: _24  and  _25
REMARK   10  A    between atoms: _26  and  _27
REMARK   11  A    between atoms: _28  and  _30
REMARK   12  A    between atoms: _30  and  _31
REMARK   13  A    between atoms: _30  and  _32
REMARK   14  A    between atoms: _32  and  _33
REMARK   15  A    between atoms: _32  and  _34
REMARK   16  A    between atoms: _35  and  _37
REMARK                            x       y       z     vdW  Elec       q    Type
REMARK                         _______ _______ _______ _____ _____    ______ ____
ROOT
ATOM      1  C   UNL     1      -4.225   9.006  23.835  0.00  0.00    +0.163 C 
ENDROOT
BRANCH   1   2
ATOM      2  O   UNL     1      -3.752   8.349  22.648  0.00  0.00    -0.388 OA
ATOM      3  H   UNL     1      -2.898   7.946  22.823  0.00  0.00    +0.210 HD
ENDBRANCH   1   2
BRANCH   1   4
ATOM      4  C   UNL     1      -4.242   8.025  25.003  0.00  0.00    +0.141 C 
BRANCH   4   7
ATOM      5  C   UNL     1      -2.585   8.565  26.754  0.00  0.00    +0.401 C 
ATOM      6  O   UNL     1      -1.674   7.927  26.221  0.00  0.00    -0.226 OA
ATOM      7  N   UNL     1      -3.818   8.659  26.257  0.00  0.00    -0.279 N 
ATOM      8  H   UNL     1      -4.500   9.198  26.773  0.00  0.00    +0.152 HD
BRANCH   5   9
ATOM      9  O   UNL     1      -2.327   9.249  27.983  0.00  0.00    -0.444 OA
BRANCH   9  10
ATOM     10  C   UNL     1      -3.557   9.453  28.684  0.00  0.00    +0.292 C 
BRANCH  10  12
ATOM     11  N   UNL     1      -2.702   9.388  30.998  0.00  0.00    -0.131 NA
ATOM     12  C   UNL     1      -3.301  10.080  29.994  0.00  0.00    +0.121 A 
ATOM     13  C   UNL     1      -3.574  11.354  30.434  0.00  0.00    +0.143 A 
ATOM     14  N   UNL     1      -3.100  11.408  31.735  0.00  0.00    -0.219 N 
ATOM     15  N   UNL     1      -2.591  10.195  32.042  0.00  0.00    -0.060 NA
BRANCH  14  16
ATOM     16  C   UNL     1      -3.106  12.523  32.632  0.00  0.00    +0.080 A 
ATOM     17  C   UNL     1      -1.934  13.314  32.700  0.00  0.00    +0.029 A 
ATOM     18  C   UNL     1      -1.837  14.412  33.560  0.00  0.00    +0.002 A 
ATOM     19  C   UNL     1      -2.906  14.752  34.372  0.00  0.00    +0.001 A 
ATOM     20  C   UNL     1      -4.074  13.995  34.321  0.00  0.00    +0.016 A 
ATOM     21  C   UNL     1      -4.191  12.884  33.458  0.00  0.00    +0.039 A 
ATOM     22  I   UNL     1      -6.082  11.946  33.605  0.00  0.00    -0.042 I 
ENDBRANCH  14  16
ENDBRANCH  10  12
ENDBRANCH   9  10
ENDBRANCH   5   9
ENDBRANCH   4   7
ENDBRANCH   1   4
BRANCH   1  23
ATOM     23  C   UNL     1      -5.638   9.576  23.623  0.00  0.00    +0.175 C 
BRANCH  23  24
ATOM     24  C   UNL     1      -5.612  10.932  22.902  0.00  0.00    +0.176 C 
ATOM     25  O   UNL     1      -5.262  10.691  21.511  0.00  0.00    -0.332 OA
ATOM     26  C   UNL     1      -5.291  11.868  20.637  0.00  0.00    +0.277 C 
ATOM     27  C   UNL     1      -4.398  12.994  21.215  0.00  0.00    +0.110 C 
ATOM     28  C   UNL     1      -4.712  13.263  22.702  0.00  0.00    +0.143 C 
ATOM     29  C   UNL     1      -4.656  11.971  23.517  0.00  0.00    +0.133 C 
BRANCH  29  30
ATOM     30  N   UNL     1      -5.042  12.226  24.914  0.00  0.00    -0.308 N 
ATOM     31  H   UNL     1      -6.020  12.385  25.112  0.00  0.00    +0.149 HD
ATOM     32  C   UNL     1      -4.184  12.261  25.938  0.00  0.00    +0.210 C 
ATOM     33  C   UNL     1      -2.698  12.040  25.599  0.00  0.00    +0.109 C 
ATOM     34  O   UNL     1      -4.538  12.463  27.100  0.00  0.00    -0.276 OA
ENDBRANCH  29  30
BRANCH  26  35
ATOM     35  C   UNL     1      -6.734  12.390  20.471  0.00  0.00    +0.414 C 
ATOM     36  O   UNL     1      -7.685  11.612  20.530  0.00  0.00    -0.240 OA
ATOM     37  O   UNL     1      -6.946  13.587  20.277  0.00  0.00    -0.240 OA
ENDBRANCH  26  35
BRANCH  28  38
ATOM     38  O   UNL     1      -3.768  14.195  23.232  0.00  0.00    -0.390 OA
ATOM     39  H   UNL     1      -4.167  14.675  23.961  0.00  0.00    +0.210 HD
ENDBRANCH  28  38
BRANCH  26  40
ATOM     40  O   UNL     1      -4.759  11.481  19.344  0.00  0.00    -0.343 OA
ATOM     41  C   UNL     1      -4.885  10.072  19.028  0.00  0.00    +0.198 C 
ENDBRANCH  26  40
ENDBRANCH  23  24
BRANCH  23  42
ATOM     42  O   UNL     1      -6.319   9.699  24.887  0.00  0.00    -0.387 OA
ATOM     43  H   UNL     1      -5.728   9.434  25.597  0.00  0.00    +0.210 HD
ENDBRANCH  23  42
ENDBRANCH   1  23
TORSDOF 14
