REMARK VINA RESULT:    -5.581      3.049     10.019
REMARK INTER + INTRA:         -12.040
REMARK INTER:                  -9.043
REMARK INTRA:                  -2.996
REMARK UNBOUND:                -2.381
REMARK  Name = lig_assembled_7.pdb
REMARK  19 active torsions:
REMARK  status: ('A' for Active; 'I' for Inactive)
REMARK    1  A    between atoms: _2  and  _9
REMARK    2  A    between atoms: _4  and  _21
REMARK    3  A    between atoms: _5  and  _16
REMARK    4  A    between atoms: _6  and  _7
REMARK    5  A    between atoms: _6  and  _21
REMARK    6  A    between atoms: _10  and  _11
REMARK    7  A    between atoms: _13  and  _14
REMARK    8  A    between atoms: _17  and  _37
REMARK    9  A    between atoms: _19  and  _25
REMARK   10  A    between atoms: _20  and  _24
REMARK   11  A    between atoms: _24  and  _25
REMARK   12  A    between atoms: _27  and  _28
REMARK   13  A    between atoms: _29  and  _30
REMARK   14  A    between atoms: _31  and  _33
REMARK   15  A    between atoms: _33  and  _34
REMARK   16  A    between atoms: _33  and  _35
REMARK   17  A    between atoms: _35  and  _36
REMARK   18  A    between atoms: _35  and  _37
REMARK   19  A    between atoms: _38  and  _40
REMARK                            x       y       z     vdW  Elec       q    Type
REMARK                         _______ _______ _______ _____ _____    ______ ____
ROOT
ATOM      1  C   UNL     1      -6.789   8.896  23.640  0.00  0.00    +0.163 C 
ENDROOT
BRANCH   1   2
ATOM      2  O   UNL     1      -6.203   9.157  24.926  0.00  0.00    -0.388 OA
ATOM      3  H   UNL     1      -6.814   9.673  25.458  0.00  0.00    +0.210 HD
ENDBRANCH   1   2
BRANCH   1   4
ATOM      4  C   UNL     1      -6.258   7.579  23.083  0.00  0.00    +0.141 C 
BRANCH   4   7
ATOM      5  C   UNL     1      -3.861   7.156  23.507  0.00  0.00    +0.401 C 
ATOM      6  O   UNL     1      -3.486   7.679  22.455  0.00  0.00    -0.226 OA
ATOM      7  N   UNL     1      -5.138   7.060  23.878  0.00  0.00    -0.279 N 
ATOM      8  H   UNL     1      -5.347   6.604  24.755  0.00  0.00    +0.152 HD
BRANCH   5   9
ATOM      9  O   UNL     1      -2.885   6.609  24.397  0.00  0.00    -0.444 OA
BRANCH   9  10
ATOM     10  C   UNL     1      -3.523   6.184  25.604  0.00  0.00    +0.292 C 
BRANCH  10  12
ATOM     11  N   UNL     1      -1.830   7.505  26.814  0.00  0.00    -0.131 NA
ATOM     12  C   UNL     1      -3.104   7.037  26.732  0.00  0.00    +0.121 A 
ATOM     13  C   UNL     1      -3.820   7.502  27.817  0.00  0.00    +0.143 A 
ATOM     14  N   UNL     1      -2.916   8.221  28.571  0.00  0.00    -0.219 N 
ATOM     15  N   UNL     1      -1.732   8.241  27.909  0.00  0.00    -0.060 NA
BRANCH  14  16
ATOM     16  C   UNL     1      -3.096   8.880  29.830  0.00  0.00    +0.073 A 
ATOM     17  C   UNL     1      -3.336  10.288  29.856  0.00  0.00    -0.024 A 
ATOM     18  C   UNL     1      -3.515  10.945  31.092  0.00  0.00    +0.008 A 
ATOM     19  C   UNL     1      -3.474  10.251  32.299  0.00  0.00    -0.050 A 
ATOM     20  C   UNL     1      -3.671  10.979  33.595  0.00  0.00    +0.044 C 
ATOM     21  C   UNL     1      -3.242   8.878  32.269  0.00  0.00    +0.008 A 
ATOM     22  C   UNL     1      -3.469  11.158  28.625  0.00  0.00    +0.046 C 
ATOM     23  C   UNL     1      -3.029   8.175  31.060  0.00  0.00    -0.024 A 
ATOM     24  C   UNL     1      -2.671   6.725  31.259  0.00  0.00    +0.046 C 
ENDBRANCH  14  16
ENDBRANCH  10  12
ENDBRANCH   9  10
ENDBRANCH   5   9
ENDBRANCH   4   7
ENDBRANCH   1   4
BRANCH   1  25
ATOM     25  C   UNL     1      -6.479  10.034  22.653  0.00  0.00    +0.175 C 
BRANCH  25  26
ATOM     26  C   UNL     1      -5.121  10.693  22.938  0.00  0.00    +0.176 C 
ATOM     27  O   UNL     1      -5.302  11.634  24.032  0.00  0.00    -0.332 OA
ATOM     28  C   UNL     1      -4.081  12.286  24.515  0.00  0.00    +0.277 C 
ATOM     29  C   UNL     1      -3.337  12.977  23.347  0.00  0.00    +0.110 C 
ATOM     30  C   UNL     1      -3.150  12.024  22.147  0.00  0.00    +0.143 C 
ATOM     31  C   UNL     1      -4.482  11.400  21.729  0.00  0.00    +0.133 C 
BRANCH  31  32
ATOM     32  N   UNL     1      -4.277  10.429  20.643  0.00  0.00    -0.308 N 
ATOM     33  H   UNL     1      -3.691   9.628  20.831  0.00  0.00    +0.149 HD
ATOM     34  C   UNL     1      -4.814  10.537  19.425  0.00  0.00    +0.210 C 
ATOM     35  C   UNL     1      -5.681  11.783  19.162  0.00  0.00    +0.109 C 
ATOM     36  O   UNL     1      -4.637   9.701  18.539  0.00  0.00    -0.276 OA
ENDBRANCH  31  32
BRANCH  28  37
ATOM     37  C   UNL     1      -3.144  11.261  25.188  0.00  0.00    +0.414 C 
ATOM     38  O   UNL     1      -2.013  11.593  25.540  0.00  0.00    -0.240 OA
ATOM     39  O   UNL     1      -3.519  10.103  25.379  0.00  0.00    -0.240 OA
ENDBRANCH  28  37
BRANCH  30  40
ATOM     40  O   UNL     1      -2.599  12.743  21.043  0.00  0.00    -0.390 OA
ATOM     41  H   UNL     1      -2.548  13.677  21.261  0.00  0.00    +0.210 HD
ENDBRANCH  30  40
BRANCH  28  42
ATOM     42  O   UNL     1      -4.465  13.301  25.478  0.00  0.00    -0.343 OA
ATOM     43  C   UNL     1      -5.875  13.321  25.816  0.00  0.00    +0.198 C 
ENDBRANCH  28  42
ENDBRANCH  25  26
BRANCH  25  44
ATOM     44  O   UNL     1      -7.528  11.022  22.689  0.00  0.00    -0.387 OA
ATOM     45  H   UNL     1      -8.037  10.978  21.876  0.00  0.00    +0.210 HD
ENDBRANCH  25  44
ENDBRANCH   1  25
TORSDOF 14
