REMARK VINA RESULT:    -4.216      4.281     10.271
REMARK INTER + INTRA:         -10.388
REMARK INTER:                  -7.683
REMARK INTRA:                  -2.705
REMARK UNBOUND:                -2.598
REMARK  Name = lig_assembled_67.pdb
REMARK  18 active torsions:
REMARK  status: ('A' for Active; 'I' for Inactive)
REMARK    1  A    between atoms: _2  and  _9
REMARK    2  A    between atoms: _4  and  _19
REMARK    3  A    between atoms: _6  and  _7
REMARK    4  A    between atoms: _6  and  _19
REMARK    5  A    between atoms: _9  and  _10
REMARK    6  A    between atoms: _10  and  _11
REMARK    7  A    between atoms: _15  and  _35
REMARK    8  A    between atoms: _17  and  _23
REMARK    9  A    between atoms: _18  and  _22
REMARK   10  A    between atoms: _22  and  _23
REMARK   11  A    between atoms: _25  and  _26
REMARK   12  A    between atoms: _27  and  _28
REMARK   13  A    between atoms: _29  and  _31
REMARK   14  A    between atoms: _31  and  _32
REMARK   15  A    between atoms: _31  and  _33
REMARK   16  A    between atoms: _33  and  _34
REMARK   17  A    between atoms: _33  and  _35
REMARK   18  A    between atoms: _36  and  _38
REMARK                            x       y       z     vdW  Elec       q    Type
REMARK                         _______ _______ _______ _____ _____    ______ ____
ROOT
ATOM      1  C   UNL     1      -6.787   9.673  23.621  0.00  0.00    +0.163 C 
ENDROOT
BRANCH   1   2
ATOM      2  O   UNL     1      -7.453   9.609  24.893  0.00  0.00    -0.388 OA
ATOM      3  H   UNL     1      -6.828   9.339  25.569  0.00  0.00    +0.210 HD
ENDBRANCH   1   2
BRANCH   1   4
ATOM      4  C   UNL     1      -5.467   8.883  23.651  0.00  0.00    +0.175 C 
BRANCH   4   5
ATOM      5  C   UNL     1      -4.319   9.698  24.266  0.00  0.00    +0.176 C 
ATOM      6  O   UNL     1      -4.533   9.758  25.703  0.00  0.00    -0.332 OA
ATOM      7  C   UNL     1      -3.472  10.412  26.475  0.00  0.00    +0.277 C 
ATOM      8  C   UNL     1      -3.202  11.835  25.926  0.00  0.00    +0.110 C 
ATOM      9  C   UNL     1      -3.001  11.826  24.396  0.00  0.00    +0.143 C 
ATOM     10  C   UNL     1      -4.160  11.119  23.694  0.00  0.00    +0.133 C 
BRANCH  10  11
ATOM     11  N   UNL     1      -3.915  11.041  22.245  0.00  0.00    -0.308 N 
ATOM     12  H   UNL     1      -3.218  10.386  21.919  0.00  0.00    +0.149 HD
ATOM     13  C   UNL     1      -4.552  11.780  21.333  0.00  0.00    +0.210 C 
ATOM     14  C   UNL     1      -5.588  12.788  21.863  0.00  0.00    +0.109 C 
ATOM     15  O   UNL     1      -4.336  11.683  20.124  0.00  0.00    -0.276 OA
ENDBRANCH  10  11
BRANCH   7  16
ATOM     16  C   UNL     1      -2.170   9.585  26.425  0.00  0.00    +0.414 C 
ATOM     17  O   UNL     1      -1.078  10.150  26.377  0.00  0.00    -0.240 OA
ATOM     18  O   UNL     1      -2.212   8.354  26.433  0.00  0.00    -0.240 OA
ENDBRANCH   7  16
BRANCH   9  19
ATOM     19  O   UNL     1      -2.907  13.168  23.915  0.00  0.00    -0.390 OA
ATOM     20  H   UNL     1      -2.654  13.160  22.989  0.00  0.00    +0.210 HD
ENDBRANCH   9  19
BRANCH   7  21
ATOM     21  O   UNL     1      -3.923  10.529  27.848  0.00  0.00    -0.343 OA
ATOM     22  C   UNL     1      -4.033  11.888  28.343  0.00  0.00    +0.198 C 
ENDBRANCH   7  21
ENDBRANCH   4   5
BRANCH   4  23
ATOM     23  O   UNL     1      -5.115   8.454  22.321  0.00  0.00    -0.387 OA
ATOM     24  H   UNL     1      -5.769   7.828  22.003  0.00  0.00    +0.210 HD
ENDBRANCH   4  23
ENDBRANCH   1   4
BRANCH   1  25
ATOM     25  C   UNL     1      -7.691   9.112  22.529  0.00  0.00    +0.141 C 
BRANCH  25  28
ATOM     26  C   UNL     1      -7.318   9.806  20.187  0.00  0.00    +0.401 C 
ATOM     27  O   UNL     1      -6.676   8.795  19.891  0.00  0.00    -0.226 OA
ATOM     28  N   UNL     1      -7.824  10.039  21.398  0.00  0.00    -0.279 N 
ATOM     29  H   UNL     1      -8.328  10.902  21.546  0.00  0.00    +0.152 HD
BRANCH  26  30
ATOM     30  O   UNL     1      -7.541  10.804  19.188  0.00  0.00    -0.444 OA
BRANCH  30  31
ATOM     31  C   UNL     1      -7.445  10.210  17.890  0.00  0.00    +0.292 C 
BRANCH  31  33
ATOM     32  N   UNL     1      -5.945  12.020  17.115  0.00  0.00    -0.131 NA
ATOM     33  C   UNL     1      -6.231  10.681  17.197  0.00  0.00    +0.120 A 
ATOM     34  C   UNL     1      -5.241   9.971  16.557  0.00  0.00    +0.137 A 
ATOM     35  N   UNL     1      -4.387  10.931  16.106  0.00  0.00    -0.251 N 
ATOM     36  N   UNL     1      -4.812  12.160  16.440  0.00  0.00    -0.065 NA
BRANCH  35  37
ATOM     37  C   UNL     1      -3.154  10.758  15.371  0.00  0.00    +0.150 C 
BRANCH  37  38
ATOM     38  C   UNL     1      -3.332  10.026  14.043  0.00  0.00    +0.084 C 
BRANCH  38  39
ATOM     39  C   UNL     1      -2.661   8.660  14.037  0.00  0.00    +0.252 C 
ATOM     40  O   UNL     1      -3.634   7.630  14.246  0.00  0.00    -0.349 OA
ATOM     41  C   UNL     1      -3.079   6.513  13.555  0.00  0.00    +0.191 C 
ATOM     42  C   UNL     1      -2.422   7.141  12.353  0.00  0.00    +0.191 C 
ATOM     43  O   UNL     1      -1.998   8.434  12.789  0.00  0.00    -0.349 OA
ENDBRANCH  38  39
ENDBRANCH  37  38
ENDBRANCH  35  37
ENDBRANCH  31  33
ENDBRANCH  30  31
ENDBRANCH  26  30
ENDBRANCH  25  28
ENDBRANCH   1  25
TORSDOF 16
