REMARK VINA RESULT:    -4.857      3.661      8.943
REMARK INTER + INTRA:         -11.319
REMARK INTER:                  -8.983
REMARK INTRA:                  -2.336
REMARK UNBOUND:                -2.913
REMARK  Name = lig_assembled_93.pdb
REMARK  16 active torsions:
REMARK  status: ('A' for Active; 'I' for Inactive)
REMARK    1  A    between atoms: _2  and  _9
REMARK    2  A    between atoms: _4  and  _18
REMARK    3  A    between atoms: _6  and  _7
REMARK    4  A    between atoms: _6  and  _18
REMARK    5  A    between atoms: _14  and  _34
REMARK    6  A    between atoms: _16  and  _22
REMARK    7  A    between atoms: _17  and  _21
REMARK    8  A    between atoms: _21  and  _22
REMARK    9  A    between atoms: _24  and  _25
REMARK   10  A    between atoms: _26  and  _27
REMARK   11  A    between atoms: _28  and  _30
REMARK   12  A    between atoms: _30  and  _31
REMARK   13  A    between atoms: _30  and  _32
REMARK   14  A    between atoms: _32  and  _33
REMARK   15  A    between atoms: _32  and  _34
REMARK   16  A    between atoms: _35  and  _37
REMARK                            x       y       z     vdW  Elec       q    Type
REMARK                         _______ _______ _______ _____ _____    ______ ____
ROOT
ATOM      1  C   UNL     1      -2.939  11.964  24.143  0.00  0.00    +0.163 C 
ENDROOT
BRANCH   1   2
ATOM      2  O   UNL     1      -1.954  11.817  25.180  0.00  0.00    -0.388 OA
ATOM      3  H   UNL     1      -1.308  11.157  24.917  0.00  0.00    +0.210 HD
ENDBRANCH   1   2
BRANCH   1   4
ATOM      4  C   UNL     1      -3.779  13.211  24.395  0.00  0.00    +0.141 C 
BRANCH   4   7
ATOM      5  C   UNL     1      -5.306  14.163  22.701  0.00  0.00    +0.401 C 
ATOM      6  O   UNL     1      -4.591  15.140  22.469  0.00  0.00    -0.226 OA
ATOM      7  N   UNL     1      -5.007  13.215  23.591  0.00  0.00    -0.279 N 
ATOM      8  H   UNL     1      -5.663  12.456  23.718  0.00  0.00    +0.152 HD
BRANCH   5   9
ATOM      9  O   UNL     1      -6.538  14.018  21.990  0.00  0.00    -0.444 OA
BRANCH   9  10
ATOM     10  C   UNL     1      -6.774  12.634  21.718  0.00  0.00    +0.292 C 
BRANCH  10  12
ATOM     11  N   UNL     1      -7.490  12.602  19.356  0.00  0.00    -0.131 NA
ATOM     12  C   UNL     1      -6.537  12.345  20.291  0.00  0.00    +0.121 A 
ATOM     13  C   UNL     1      -5.429  11.824  19.664  0.00  0.00    +0.143 A 
ATOM     14  N   UNL     1      -5.745  11.791  18.316  0.00  0.00    -0.219 N 
ATOM     15  N   UNL     1      -7.004  12.259  18.173  0.00  0.00    -0.060 NA
BRANCH  14  16
ATOM     16  C   UNL     1      -4.922  11.366  17.226  0.00  0.00    +0.080 A 
ATOM     17  C   UNL     1      -4.277  12.369  16.463  0.00  0.00    +0.029 A 
ATOM     18  C   UNL     1      -3.467  12.053  15.368  0.00  0.00    +0.002 A 
ATOM     19  C   UNL     1      -3.277  10.731  15.005  0.00  0.00    +0.001 A 
ATOM     20  C   UNL     1      -3.894   9.723  15.742  0.00  0.00    +0.016 A 
ATOM     21  C   UNL     1      -4.713  10.022  16.852  0.00  0.00    +0.039 A 
ATOM     22  I   UNL     1      -5.499   8.282  17.765  0.00  0.00    -0.042 I 
ENDBRANCH  14  16
ENDBRANCH  10  12
ENDBRANCH   9  10
ENDBRANCH   5   9
ENDBRANCH   4   7
ENDBRANCH   1   4
BRANCH   1  23
ATOM     23  C   UNL     1      -3.856  10.730  24.077  0.00  0.00    +0.175 C 
BRANCH  23  24
ATOM     24  C   UNL     1      -3.881   9.957  25.403  0.00  0.00    +0.176 C 
ATOM     25  O   UNL     1      -2.899   8.888  25.316  0.00  0.00    -0.332 OA
ATOM     26  C   UNL     1      -2.706   8.102  26.539  0.00  0.00    +0.277 C 
ATOM     27  C   UNL     1      -4.058   7.532  27.034  0.00  0.00    +0.110 C 
ATOM     28  C   UNL     1      -5.143   8.627  27.113  0.00  0.00    +0.143 C 
ATOM     29  C   UNL     1      -5.257   9.383  25.789  0.00  0.00    +0.133 C 
BRANCH  29  30
ATOM     30  N   UNL     1      -6.232  10.479  25.904  0.00  0.00    -0.308 N 
ATOM     31  H   UNL     1      -6.097  11.154  26.643  0.00  0.00    +0.149 HD
ATOM     32  C   UNL     1      -7.282  10.640  25.094  0.00  0.00    +0.210 C 
ATOM     33  C   UNL     1      -7.474   9.580  23.994  0.00  0.00    +0.109 C 
ATOM     34  O   UNL     1      -8.074  11.576  25.205  0.00  0.00    -0.276 OA
ENDBRANCH  29  30
BRANCH  26  35
ATOM     35  C   UNL     1      -2.073   8.965  27.649  0.00  0.00    +0.414 C 
ATOM     36  O   UNL     1      -1.222   9.809  27.369  0.00  0.00    -0.240 OA
ATOM     37  O   UNL     1      -2.412   8.819  28.824  0.00  0.00    -0.240 OA
ENDBRANCH  26  35
BRANCH  28  38
ATOM     38  O   UNL     1      -6.404   8.034  27.426  0.00  0.00    -0.390 OA
ATOM     39  H   UNL     1      -6.415   7.124  27.120  0.00  0.00    +0.210 HD
ENDBRANCH  28  38
BRANCH  26  40
ATOM     40  O   UNL     1      -1.829   6.990  26.224  0.00  0.00    -0.343 OA
ATOM     41  C   UNL     1      -2.488   5.833  25.651  0.00  0.00    +0.198 C 
ENDBRANCH  26  40
ENDBRANCH  23  24
BRANCH  23  42
ATOM     42  O   UNL     1      -3.443   9.862  23.003  0.00  0.00    -0.387 OA
ATOM     43  H   UNL     1      -3.641  10.278  22.160  0.00  0.00    +0.210 HD
ENDBRANCH  23  42
ENDBRANCH   1  23
TORSDOF 14
