REMARK VINA RESULT:    -4.573      2.142      7.071
REMARK INTER + INTRA:         -12.098
REMARK INTER:                  -8.203
REMARK INTRA:                  -3.894
REMARK UNBOUND:                -3.114
REMARK  Name = lig_assembled_10.pdb
REMARK  21 active torsions:
REMARK  status: ('A' for Active; 'I' for Inactive)
REMARK    1  A    between atoms: _2  and  _9
REMARK    2  A    between atoms: _4  and  _20
REMARK    3  A    between atoms: _5  and  _9
REMARK    4  A    between atoms: _5  and  _12
REMARK    5  A    between atoms: _6  and  _7
REMARK    6  A    between atoms: _6  and  _20
REMARK    7  A    between atoms: _9  and  _10
REMARK    8  A    between atoms: _10  and  _11
REMARK    9  A    between atoms: _11  and  _14
REMARK   10  A    between atoms: _16  and  _36
REMARK   11  A    between atoms: _18  and  _24
REMARK   12  A    between atoms: _19  and  _23
REMARK   13  A    between atoms: _23  and  _24
REMARK   14  A    between atoms: _26  and  _27
REMARK   15  A    between atoms: _28  and  _29
REMARK   16  A    between atoms: _30  and  _32
REMARK   17  A    between atoms: _32  and  _33
REMARK   18  A    between atoms: _32  and  _34
REMARK   19  A    between atoms: _34  and  _35
REMARK   20  A    between atoms: _34  and  _36
REMARK   21  A    between atoms: _37  and  _39
REMARK                            x       y       z     vdW  Elec       q    Type
REMARK                         _______ _______ _______ _____ _____    ______ ____
ROOT
ATOM      1  C   UNL     1      -6.504   8.697  23.300  0.00  0.00    +0.163 C 
ENDROOT
BRANCH   1   2
ATOM      2  O   UNL     1      -6.118   8.912  24.668  0.00  0.00    -0.388 OA
ATOM      3  H   UNL     1      -5.366   8.354  24.880  0.00  0.00    +0.210 HD
ENDBRANCH   1   2
BRANCH   1   4
ATOM      4  C   UNL     1      -6.332   9.982  22.472  0.00  0.00    +0.175 C 
BRANCH   4   5
ATOM      5  C   UNL     1      -4.998  10.684  22.765  0.00  0.00    +0.176 C 
ATOM      6  O   UNL     1      -5.170  11.488  23.965  0.00  0.00    -0.332 OA
ATOM      7  C   UNL     1      -3.962  12.153  24.461  0.00  0.00    +0.277 C 
ATOM      8  C   UNL     1      -3.320  13.012  23.343  0.00  0.00    +0.110 C 
ATOM      9  C   UNL     1      -3.146  12.209  22.037  0.00  0.00    +0.143 C 
ATOM     10  C   UNL     1      -4.463  11.557  21.614  0.00  0.00    +0.133 C 
BRANCH  10  11
ATOM     11  N   UNL     1      -4.265  10.724  20.417  0.00  0.00    -0.308 N 
ATOM     12  H   UNL     1      -3.584   9.980  20.468  0.00  0.00    +0.149 HD
ATOM     13  C   UNL     1      -4.926  10.889  19.268  0.00  0.00    +0.210 C 
ATOM     14  C   UNL     1      -5.938  12.049  19.215  0.00  0.00    +0.109 C 
ATOM     15  O   UNL     1      -4.750  10.167  18.286  0.00  0.00    -0.276 OA
ENDBRANCH  10  11
BRANCH   7  16
ATOM     16  C   UNL     1      -2.937  11.118  24.969  0.00  0.00    +0.414 C 
ATOM     17  O   UNL     1      -3.081   9.924  24.710  0.00  0.00    -0.240 OA
ATOM     18  O   UNL     1      -1.966  11.477  25.637  0.00  0.00    -0.240 OA
ENDBRANCH   7  16
BRANCH   7  19
ATOM     19  O   UNL     1      -4.348  13.033  25.548  0.00  0.00    -0.343 OA
ATOM     20  C   UNL     1      -5.701  13.547  25.468  0.00  0.00    +0.198 C 
ENDBRANCH   7  19
BRANCH   9  21
ATOM     21  O   UNL     1      -2.695  13.076  20.995  0.00  0.00    -0.390 OA
ATOM     22  H   UNL     1      -1.931  13.572  21.299  0.00  0.00    +0.210 HD
ENDBRANCH   9  21
ENDBRANCH   4   5
BRANCH   4  23
ATOM     23  O   UNL     1      -7.432  10.881  22.717  0.00  0.00    -0.387 OA
ATOM     24  H   UNL     1      -7.871  10.635  23.534  0.00  0.00    +0.210 HD
ENDBRANCH   4  23
ENDBRANCH   1   4
BRANCH   1  25
ATOM     25  C   UNL     1      -5.663   7.581  22.690  0.00  0.00    +0.141 C 
BRANCH  25  28
ATOM     26  C   UNL     1      -3.747   6.211  23.438  0.00  0.00    +0.401 C 
ATOM     27  O   UNL     1      -4.108   5.203  22.826  0.00  0.00    -0.226 OA
ATOM     28  N   UNL     1      -4.417   7.364  23.435  0.00  0.00    -0.279 N 
ATOM     29  H   UNL     1      -4.046   8.132  23.977  0.00  0.00    +0.152 HD
BRANCH  26  30
ATOM     30  O   UNL     1      -2.543   6.162  24.208  0.00  0.00    -0.444 OA
BRANCH  30  31
ATOM     31  C   UNL     1      -2.842   5.718  25.534  0.00  0.00    +0.292 C 
BRANCH  31  33
ATOM     32  N   UNL     1      -1.698   7.588  26.688  0.00  0.00    -0.131 NA
ATOM     33  C   UNL     1      -2.836   6.860  26.468  0.00  0.00    +0.120 A 
ATOM     34  C   UNL     1      -3.859   7.385  27.225  0.00  0.00    +0.138 A 
ATOM     35  N   UNL     1      -3.297   8.454  27.851  0.00  0.00    -0.237 N 
ATOM     36  N   UNL     1      -1.988   8.557  27.543  0.00  0.00    -0.065 NA
BRANCH  35  37
ATOM     37  C   UNL     1      -3.872   9.444  28.749  0.00  0.00    +0.227 C 
BRANCH  37  38
ATOM     38  C   UNL     1      -4.590  10.581  28.055  0.00  0.00    +0.330 C 
ATOM     39  O   UNL     1      -5.504  10.378  27.263  0.00  0.00    -0.249 OA
BRANCH  38  40
ATOM     40  O   UNL     1      -4.216  11.838  28.373  0.00  0.00    -0.479 OA
ATOM     41  H   UNL     1      -3.242  12.024  28.381  0.00  0.00    +0.295 HD
ENDBRANCH  38  40
ENDBRANCH  37  38
BRANCH  37  42
ATOM     42  C   UNL     1      -2.911   9.939  29.839  0.00  0.00    +0.158 C 
BRANCH  42  43
ATOM     43  C   UNL     1      -3.555   9.949  31.197  0.00  0.00    +0.307 C 
ATOM     44  O   UNL     1      -3.443   9.039  32.009  0.00  0.00    -0.251 OA
BRANCH  43  45
ATOM     45  O   UNL     1      -4.205  11.095  31.478  0.00  0.00    -0.481 OA
ATOM     46  H   UNL     1      -5.063  11.208  31.024  0.00  0.00    +0.295 HD
ENDBRANCH  43  45
ENDBRANCH  42  43
ENDBRANCH  37  42
ENDBRANCH  35  37
ENDBRANCH  31  33
ENDBRANCH  30  31
ENDBRANCH  26  30
ENDBRANCH  25  28
ENDBRANCH   1  25
TORSDOF 19
