REMARK VINA RESULT:    -4.924      3.078      6.386
REMARK INTER + INTRA:         -11.679
REMARK INTER:                  -7.685
REMARK INTRA:                  -3.994
REMARK UNBOUND:                -2.869
REMARK  Name = lig_assembled_71.pdb
REMARK  17 active torsions:
REMARK  status: ('A' for Active; 'I' for Inactive)
REMARK    1  A    between atoms: _2  and  _12
REMARK    2  A    between atoms: _7  and  _22
REMARK    3  A    between atoms: _9  and  _10
REMARK    4  A    between atoms: _9  and  _22
REMARK    5  A    between atoms: _12  and  _13
REMARK    6  A    between atoms: _18  and  _38
REMARK    7  A    between atoms: _20  and  _26
REMARK    8  A    between atoms: _21  and  _25
REMARK    9  A    between atoms: _25  and  _26
REMARK   10  A    between atoms: _28  and  _29
REMARK   11  A    between atoms: _30  and  _31
REMARK   12  A    between atoms: _32  and  _34
REMARK   13  A    between atoms: _34  and  _35
REMARK   14  A    between atoms: _34  and  _36
REMARK   15  A    between atoms: _36  and  _37
REMARK   16  A    between atoms: _36  and  _38
REMARK   17  A    between atoms: _39  and  _41
REMARK                            x       y       z     vdW  Elec       q    Type
REMARK                         _______ _______ _______ _____ _____    ______ ____
ROOT
ATOM      1  C   UNL     1      -2.107  10.079  27.283  0.00  0.00    +0.163 C 
ENDROOT
BRANCH   1   2
ATOM      2  O   UNL     1      -2.237   9.489  25.979  0.00  0.00    -0.388 OA
ATOM      3  H   UNL     1      -1.471   9.717  25.446  0.00  0.00    +0.210 HD
ENDBRANCH   1   2
BRANCH   1   4
ATOM      4  C   UNL     1      -1.993   8.986  28.341  0.00  0.00    +0.141 C 
BRANCH   4   7
ATOM      5  C   UNL     1      -3.034   8.635  30.554  0.00  0.00    +0.401 C 
ATOM      6  O   UNL     1      -3.218   7.428  30.380  0.00  0.00    -0.226 OA
ATOM      7  N   UNL     1      -2.474   9.441  29.651  0.00  0.00    -0.279 N 
ATOM      8  H   UNL     1      -2.374  10.419  29.882  0.00  0.00    +0.152 HD
BRANCH   5   9
ATOM      9  O   UNL     1      -3.443   9.229  31.789  0.00  0.00    -0.444 OA
BRANCH   9  10
ATOM     10  C   UNL     1      -4.505  10.155  31.545  0.00  0.00    +0.292 C 
BRANCH  10  12
ATOM     11  N   UNL     1      -3.123  12.152  31.033  0.00  0.00    -0.131 NA
ATOM     12  C   UNL     1      -4.058  11.533  31.821  0.00  0.00    +0.120 A 
ATOM     13  C   UNL     1      -4.446  12.398  32.817  0.00  0.00    +0.137 A 
ATOM     14  N   UNL     1      -3.703  13.521  32.594  0.00  0.00    -0.242 N 
ATOM     15  N   UNL     1      -2.918  13.374  31.511  0.00  0.00    -0.065 NA
BRANCH  14  16
ATOM     16  C   UNL     1      -3.761  14.796  33.280  0.00  0.00    +0.241 C 
BRANCH  16  17
ATOM     17  C   UNL     1      -3.963  15.938  32.320  0.00  0.00    +0.241 C 
ATOM     18  O   UNL     1      -3.371  17.002  32.495  0.00  0.00    -0.273 OA
ATOM     19  N   UNL     1      -4.892  15.697  31.330  0.00  0.00    -0.253 N 
ATOM     20  H   UNL     1      -5.497  14.891  31.346  0.00  0.00    +0.158 HD
ATOM     21  C   UNL     1      -5.212  16.607  30.329  0.00  0.00    +0.221 A 
ATOM     22  N   UNL     1      -6.327  16.331  29.636  0.00  0.00    -0.223 NA
ATOM     23  C   UNL     1      -6.693  17.243  28.711  0.00  0.00    +0.116 A 
ATOM     24  C   UNL     1      -5.981  18.386  28.439  0.00  0.00    +0.039 A 
ATOM     25  C   UNL     1      -4.834  18.547  29.171  0.00  0.00    +0.116 A 
ATOM     26  N   UNL     1      -4.439  17.675  30.111  0.00  0.00    -0.223 NA
ENDBRANCH  16  17
ENDBRANCH  14  16
ENDBRANCH  10  12
ENDBRANCH   9  10
ENDBRANCH   5   9
ENDBRANCH   4   7
ENDBRANCH   1   4
BRANCH   1  27
ATOM     27  C   UNL     1      -3.313  10.979  27.602  0.00  0.00    +0.175 C 
BRANCH  27  28
ATOM     28  C   UNL     1      -4.120  11.331  26.344  0.00  0.00    +0.176 C 
ATOM     29  O   UNL     1      -3.285  12.168  25.497  0.00  0.00    -0.332 OA
ATOM     30  C   UNL     1      -3.855  12.518  24.192  0.00  0.00    +0.277 C 
ATOM     31  C   UNL     1      -5.245  13.176  24.369  0.00  0.00    +0.110 C 
ATOM     32  C   UNL     1      -6.159  12.338  25.288  0.00  0.00    +0.143 C 
ATOM     33  C   UNL     1      -5.466  12.029  26.616  0.00  0.00    +0.133 C 
BRANCH  33  34
ATOM     34  N   UNL     1      -6.311  11.158  27.447  0.00  0.00    -0.308 N 
ATOM     35  H   UNL     1      -6.599  10.270  27.060  0.00  0.00    +0.149 HD
ATOM     36  C   UNL     1      -6.723  11.464  28.681  0.00  0.00    +0.210 C 
ATOM     37  C   UNL     1      -6.289  12.835  29.232  0.00  0.00    +0.109 C 
ATOM     38  O   UNL     1      -7.419  10.708  29.360  0.00  0.00    -0.276 OA
ENDBRANCH  33  34
BRANCH  30  39
ATOM     39  C   UNL     1      -3.985  11.268  23.299  0.00  0.00    +0.414 C 
ATOM     40  O   UNL     1      -3.105  10.408  23.303  0.00  0.00    -0.240 OA
ATOM     41  O   UNL     1      -4.970  11.118  22.574  0.00  0.00    -0.240 OA
ENDBRANCH  30  39
BRANCH  30  42
ATOM     42  O   UNL     1      -2.971  13.480  23.560  0.00  0.00    -0.343 OA
ATOM     43  C   UNL     1      -3.634  14.472  22.737  0.00  0.00    +0.198 C 
ENDBRANCH  30  42
BRANCH  32  44
ATOM     44  O   UNL     1      -7.369  13.052  25.544  0.00  0.00    -0.390 OA
ATOM     45  H   UNL     1      -7.231  13.668  26.267  0.00  0.00    +0.210 HD
ENDBRANCH  32  44
ENDBRANCH  27  28
BRANCH  27  46
ATOM     46  O   UNL     1      -2.874  12.182  28.264  0.00  0.00    -0.387 OA
ATOM     47  H   UNL     1      -3.471  12.386  28.987  0.00  0.00    +0.210 HD
ENDBRANCH  27  46
ENDBRANCH   1  27
TORSDOF 15
