REMARK VINA RESULT:    -3.848      1.980      2.242
REMARK INTER + INTRA:         -10.504
REMARK INTER:                  -5.996
REMARK INTRA:                  -4.507
REMARK UNBOUND:                -3.505
REMARK  Name = lig_assembled_22.pdb
REMARK  20 active torsions:
REMARK  status: ('A' for Active; 'I' for Inactive)
REMARK    1  A    between atoms: _2  and  _9
REMARK    2  A    between atoms: _4  and  _18
REMARK    3  A    between atoms: _5  and  _9
REMARK    4  A    between atoms: _5  and  _12
REMARK    5  A    between atoms: _6  and  _7
REMARK    6  A    between atoms: _6  and  _18
REMARK    7  A    between atoms: _9  and  _10
REMARK    8  A    between atoms: _9  and  _11
REMARK    9  A    between atoms: _14  and  _34
REMARK   10  A    between atoms: _16  and  _22
REMARK   11  A    between atoms: _17  and  _21
REMARK   12  A    between atoms: _21  and  _22
REMARK   13  A    between atoms: _24  and  _25
REMARK   14  A    between atoms: _26  and  _27
REMARK   15  A    between atoms: _28  and  _30
REMARK   16  A    between atoms: _30  and  _31
REMARK   17  A    between atoms: _30  and  _32
REMARK   18  A    between atoms: _32  and  _33
REMARK   19  A    between atoms: _32  and  _34
REMARK   20  A    between atoms: _35  and  _37
REMARK                            x       y       z     vdW  Elec       q    Type
REMARK                         _______ _______ _______ _____ _____    ______ ____
ROOT
ATOM      1  C   UNL     1      -3.273  11.784  24.805  0.00  0.00    +0.163 C 
ENDROOT
BRANCH   1   2
ATOM      2  O   UNL     1      -2.013  11.474  25.422  0.00  0.00    -0.388 OA
ATOM      3  H   UNL     1      -1.980  10.537  25.632  0.00  0.00    +0.210 HD
ENDBRANCH   1   2
BRANCH   1   4
ATOM      4  C   UNL     1      -3.289  13.241  24.355  0.00  0.00    +0.141 C 
BRANCH   4   7
ATOM      5  C   UNL     1      -5.231  13.971  23.013  0.00  0.00    +0.401 C 
ATOM      6  O   UNL     1      -5.867  14.384  23.986  0.00  0.00    -0.226 OA
ATOM      7  N   UNL     1      -4.021  13.417  23.095  0.00  0.00    -0.279 N 
ATOM      8  H   UNL     1      -3.583  13.099  22.241  0.00  0.00    +0.152 HD
BRANCH   5   9
ATOM      9  O   UNL     1      -5.808  14.079  21.709  0.00  0.00    -0.444 OA
BRANCH   9  10
ATOM     10  C   UNL     1      -7.139  13.557  21.731  0.00  0.00    +0.292 C 
BRANCH  10  12
ATOM     11  N   UNL     1      -7.789  11.521  22.967  0.00  0.00    -0.131 NA
ATOM     12  C   UNL     1      -7.111  12.096  21.930  0.00  0.00    +0.120 A 
ATOM     13  C   UNL     1      -6.475  11.109  21.208  0.00  0.00    +0.138 A 
ATOM     14  N   UNL     1      -6.805   9.952  21.857  0.00  0.00    -0.235 N 
ATOM     15  N   UNL     1      -7.594  10.213  22.917  0.00  0.00    -0.064 NA
BRANCH  14  16
ATOM     16  C   UNL     1      -6.406   8.575  21.561  0.00  0.00    +0.155 C 
ATOM     17  C   UNL     1      -5.984   8.394  20.086  0.00  0.00    +0.048 C 
ATOM     18  C   UNL     1      -7.600   7.643  21.843  0.00  0.00    +0.048 C 
BRANCH  16  19
ATOM     19  C   UNL     1      -5.217   8.166  22.434  0.00  0.00    +0.332 C 
ATOM     20  O   UNL     1      -4.365   7.351  22.099  0.00  0.00    -0.248 OA
BRANCH  19  21
ATOM     21  O   UNL     1      -5.150   8.774  23.643  0.00  0.00    -0.479 OA
ATOM     22  H   UNL     1      -5.212   9.749  23.644  0.00  0.00    +0.295 HD
ENDBRANCH  19  21
ENDBRANCH  16  19
ENDBRANCH  14  16
ENDBRANCH  10  12
ENDBRANCH   9  10
ENDBRANCH   5   9
ENDBRANCH   4   7
ENDBRANCH   1   4
BRANCH   1  23
ATOM     23  C   UNL     1      -4.438  11.533  25.777  0.00  0.00    +0.175 C 
BRANCH  23  24
ATOM     24  C   UNL     1      -4.173  10.334  26.700  0.00  0.00    +0.176 C 
ATOM     25  O   UNL     1      -3.525   9.298  25.912  0.00  0.00    -0.332 OA
ATOM     26  C   UNL     1      -3.098   8.110  26.657  0.00  0.00    +0.277 C 
ATOM     27  C   UNL     1      -4.290   7.504  27.439  0.00  0.00    +0.110 C 
ATOM     28  C   UNL     1      -5.030   8.575  28.267  0.00  0.00    +0.143 C 
ATOM     29  C   UNL     1      -5.425   9.767  27.395  0.00  0.00    +0.133 C 
BRANCH  29  30
ATOM     30  N   UNL     1      -6.052  10.818  28.212  0.00  0.00    -0.308 N 
ATOM     31  H   UNL     1      -5.466  11.322  28.864  0.00  0.00    +0.149 HD
ATOM     32  C   UNL     1      -7.344  11.151  28.150  0.00  0.00    +0.210 C 
ATOM     33  C   UNL     1      -8.216  10.347  27.166  0.00  0.00    +0.109 C 
ATOM     34  O   UNL     1      -7.839  12.046  28.836  0.00  0.00    -0.276 OA
ENDBRANCH  29  30
BRANCH  26  35
ATOM     35  C   UNL     1      -1.961   8.459  27.639  0.00  0.00    +0.414 C 
ATOM     36  O   UNL     1      -1.258   9.450  27.446  0.00  0.00    -0.240 OA
ATOM     37  O   UNL     1      -1.746   7.750  28.623  0.00  0.00    -0.240 OA
ENDBRANCH  26  35
BRANCH  26  38
ATOM     38  O   UNL     1      -2.632   7.124  25.699  0.00  0.00    -0.343 OA
ATOM     39  C   UNL     1      -3.309   5.843  25.760  0.00  0.00    +0.198 C 
ENDBRANCH  26  38
BRANCH  28  40
ATOM     40  O   UNL     1      -6.205   8.008  28.849  0.00  0.00    -0.390 OA
ATOM     41  H   UNL     1      -6.148   8.063  29.806  0.00  0.00    +0.210 HD
ENDBRANCH  28  40
ENDBRANCH  23  24
BRANCH  23  42
ATOM     42  O   UNL     1      -5.663  11.334  25.044  0.00  0.00    -0.387 OA
ATOM     43  H   UNL     1      -5.554  11.655  24.145  0.00  0.00    +0.210 HD
ENDBRANCH  23  42
ENDBRANCH   1  23
TORSDOF 16
