REMARK VINA RESULT:    -4.512      3.330      8.703
REMARK INTER + INTRA:         -11.751
REMARK INTER:                  -7.517
REMARK INTRA:                  -4.234
REMARK UNBOUND:                -3.679
REMARK  Name = lig_assembled_0.pdb
REMARK  17 active torsions:
REMARK  status: ('A' for Active; 'I' for Inactive)
REMARK    1  A    between atoms: _2  and  _10
REMARK    2  A    between atoms: _5  and  _21
REMARK    3  A    between atoms: _7  and  _8
REMARK    4  A    between atoms: _7  and  _21
REMARK    5  A    between atoms: _11  and  _12
REMARK    6  A    between atoms: _17  and  _37
REMARK    7  A    between atoms: _19  and  _25
REMARK    8  A    between atoms: _20  and  _24
REMARK    9  A    between atoms: _24  and  _25
REMARK   10  A    between atoms: _27  and  _28
REMARK   11  A    between atoms: _29  and  _30
REMARK   12  A    between atoms: _31  and  _33
REMARK   13  A    between atoms: _33  and  _34
REMARK   14  A    between atoms: _33  and  _35
REMARK   15  A    between atoms: _35  and  _36
REMARK   16  A    between atoms: _35  and  _37
REMARK   17  A    between atoms: _38  and  _40
REMARK                            x       y       z     vdW  Elec       q    Type
REMARK                         _______ _______ _______ _____ _____    ______ ____
ROOT
ATOM      1  C   UNL     1      -4.108  12.627  29.887  0.00  0.00    +0.163 C 
ENDROOT
BRANCH   1   2
ATOM      2  O   UNL     1      -2.946  12.258  30.648  0.00  0.00    -0.388 OA
ATOM      3  H   UNL     1      -2.873  12.827  31.418  0.00  0.00    +0.210 HD
ENDBRANCH   1   2
BRANCH   1   4
ATOM      4  C   UNL     1      -5.008  13.537  30.717  0.00  0.00    +0.141 C 
BRANCH   4   7
ATOM      5  C   UNL     1      -7.130  14.664  30.141  0.00  0.00    +0.401 C 
ATOM      6  O   UNL     1      -7.738  14.224  31.120  0.00  0.00    -0.226 OA
ATOM      7  N   UNL     1      -5.853  14.389  29.872  0.00  0.00    -0.279 N 
ATOM      8  H   UNL     1      -5.445  14.789  29.039  0.00  0.00    +0.152 HD
BRANCH   5   9
ATOM      9  O   UNL     1      -7.817  15.519  29.224  0.00  0.00    -0.444 OA
BRANCH   9  10
ATOM     10  C   UNL     1      -8.628  14.729  28.350  0.00  0.00    +0.292 C 
BRANCH  10  12
ATOM     11  N   UNL     1      -7.986  12.954  26.761  0.00  0.00    -0.131 NA
ATOM     12  C   UNL     1      -7.825  14.227  27.219  0.00  0.00    +0.121 A 
ATOM     13  C   UNL     1      -6.874  14.864  26.455  0.00  0.00    +0.143 A 
ATOM     14  N   UNL     1      -6.404  13.902  25.590  0.00  0.00    -0.219 N 
ATOM     15  N   UNL     1      -7.160  12.779  25.742  0.00  0.00    -0.060 NA
BRANCH  14  16
ATOM     16  C   UNL     1      -5.410  13.969  24.573  0.00  0.00    +0.079 A 
ATOM     17  C   UNL     1      -4.194  13.256  24.588  0.00  0.00    +0.062 A 
ATOM     18  C   UNL     1      -3.279  13.451  23.531  0.00  0.00    +0.015 A 
ATOM     19  C   UNL     1      -3.548  14.338  22.489  0.00  0.00    +0.001 A 
ATOM     20  C   UNL     1      -4.752  15.028  22.466  0.00  0.00    +0.002 A 
ATOM     21  C   UNL     1      -5.679  14.838  23.491  0.00  0.00    +0.028 A 
BRANCH  17  22
ATOM     22  C   UNL     1      -3.879  12.164  25.551  0.00  0.00    +0.244 C 
ATOM     23  O   UNL     1      -3.158  12.336  26.521  0.00  0.00    -0.270 OA
ATOM     24  N   UNL     1      -4.462  10.943  25.337  0.00  0.00    -0.325 N 
ATOM     25  H   UNL     1      -4.282  10.220  26.025  0.00  0.00    +0.145 HD
ATOM     26  H   UNL     1      -5.078  10.724  24.569  0.00  0.00    +0.145 HD
ENDBRANCH  17  22
ENDBRANCH  14  16
ENDBRANCH  10  12
ENDBRANCH   9  10
ENDBRANCH   5   9
ENDBRANCH   4   7
ENDBRANCH   1   4
BRANCH   1  27
ATOM     27  C   UNL     1      -4.899  11.380  29.453  0.00  0.00    +0.175 C 
BRANCH  27  28
ATOM     28  C   UNL     1      -3.989  10.161  29.249  0.00  0.00    +0.176 C 
ATOM     29  O   UNL     1      -4.297   9.584  27.950  0.00  0.00    -0.332 OA
ATOM     30  C   UNL     1      -3.447   8.465  27.535  0.00  0.00    +0.277 C 
ATOM     31  C   UNL     1      -3.450   7.354  28.614  0.00  0.00    +0.110 C 
ATOM     32  C   UNL     1      -3.158   7.924  30.018  0.00  0.00    +0.143 C 
ATOM     33  C   UNL     1      -4.097   9.085  30.346  0.00  0.00    +0.133 C 
BRANCH  33  34
ATOM     34  N   UNL     1      -3.752   9.675  31.649  0.00  0.00    -0.308 N 
ATOM     35  H   UNL     1      -2.814  10.029  31.773  0.00  0.00    +0.149 HD
ATOM     36  C   UNL     1      -4.597   9.774  32.678  0.00  0.00    +0.210 C 
ATOM     37  C   UNL     1      -6.012   9.202  32.466  0.00  0.00    +0.109 C 
ATOM     38  O   UNL     1      -4.285  10.286  33.753  0.00  0.00    -0.276 OA
ENDBRANCH  33  34
BRANCH  30  39
ATOM     39  C   UNL     1      -2.000   8.939  27.287  0.00  0.00    +0.414 C 
ATOM     40  O   UNL     1      -1.127   8.732  28.128  0.00  0.00    -0.240 OA
ATOM     41  O   UNL     1      -1.706   9.528  26.246  0.00  0.00    -0.240 OA
ENDBRANCH  30  39
BRANCH  32  42
ATOM     42  O   UNL     1      -3.319   6.897  30.998  0.00  0.00    -0.390 OA
ATOM     43  H   UNL     1      -4.202   6.946  31.371  0.00  0.00    +0.210 HD
ENDBRANCH  32  42
BRANCH  30  44
ATOM     44  O   UNL     1      -3.997   7.914  26.310  0.00  0.00    -0.343 OA
ATOM     45  C   UNL     1      -3.603   6.548  26.022  0.00  0.00    +0.198 C 
ENDBRANCH  30  44
ENDBRANCH  27  28
BRANCH  27  46
ATOM     46  O   UNL     1      -5.637  11.657  28.246  0.00  0.00    -0.387 OA
ATOM     47  H   UNL     1      -6.190  10.902  28.029  0.00  0.00    +0.210 HD
ENDBRANCH  27  46
ENDBRANCH   1  27
TORSDOF 15
