REMARK VINA RESULT:    -4.202      5.472      8.445
REMARK INTER + INTRA:         -11.298
REMARK INTER:                  -7.734
REMARK INTRA:                  -3.565
REMARK UNBOUND:                -3.657
REMARK  Name = lig_assembled_88.pdb
REMARK  18 active torsions:
REMARK  status: ('A' for Active; 'I' for Inactive)
REMARK    1  A    between atoms: _2  and  _9
REMARK    2  A    between atoms: _4  and  _20
REMARK    3  A    between atoms: _5  and  _15
REMARK    4  A    between atoms: _6  and  _7
REMARK    5  A    between atoms: _6  and  _20
REMARK    6  A    between atoms: _9  and  _10
REMARK    7  A    between atoms: _16  and  _36
REMARK    8  A    between atoms: _18  and  _24
REMARK    9  A    between atoms: _19  and  _23
REMARK   10  A    between atoms: _23  and  _24
REMARK   11  A    between atoms: _26  and  _27
REMARK   12  A    between atoms: _28  and  _29
REMARK   13  A    between atoms: _30  and  _32
REMARK   14  A    between atoms: _32  and  _33
REMARK   15  A    between atoms: _32  and  _34
REMARK   16  A    between atoms: _34  and  _35
REMARK   17  A    between atoms: _34  and  _36
REMARK   18  A    between atoms: _37  and  _39
REMARK                            x       y       z     vdW  Elec       q    Type
REMARK                         _______ _______ _______ _____ _____    ______ ____
ROOT
ATOM      1  C   UNL     1      -4.206  10.434  32.479  0.00  0.00    +0.163 C 
ENDROOT
BRANCH   1   2
ATOM      2  O   UNL     1      -5.283  10.713  33.389  0.00  0.00    -0.388 OA
ATOM      3  H   UNL     1      -6.049  10.185  33.150  0.00  0.00    +0.210 HD
ENDBRANCH   1   2
BRANCH   1   4
ATOM      4  C   UNL     1      -3.182  11.582  32.469  0.00  0.00    +0.175 C 
BRANCH   4   5
ATOM      5  C   UNL     1      -3.687  12.799  31.681  0.00  0.00    +0.176 C 
ATOM      6  O   UNL     1      -4.634  13.515  32.521  0.00  0.00    -0.332 OA
ATOM      7  C   UNL     1      -5.145  14.774  31.970  0.00  0.00    +0.277 C 
ATOM      8  C   UNL     1      -5.761  14.540  30.568  0.00  0.00    +0.110 C 
ATOM      9  C   UNL     1      -4.802  13.754  29.649  0.00  0.00    +0.143 C 
ATOM     10  C   UNL     1      -4.330  12.465  30.322  0.00  0.00    +0.133 C 
BRANCH  10  11
ATOM     11  N   UNL     1      -3.351  11.769  29.472  0.00  0.00    -0.308 N 
ATOM     12  H   UNL     1      -2.452  12.208  29.332  0.00  0.00    +0.149 HD
ATOM     13  C   UNL     1      -3.573  10.595  28.875  0.00  0.00    +0.210 C 
ATOM     14  C   UNL     1      -4.962   9.964  29.088  0.00  0.00    +0.109 C 
ATOM     15  O   UNL     1      -2.728  10.028  28.181  0.00  0.00    -0.276 OA
ENDBRANCH  10  11
BRANCH   7  16
ATOM     16  C   UNL     1      -4.019  15.824  31.870  0.00  0.00    +0.414 C 
ATOM     17  O   UNL     1      -3.053  15.772  32.630  0.00  0.00    -0.240 OA
ATOM     18  O   UNL     1      -4.076  16.722  31.029  0.00  0.00    -0.240 OA
ENDBRANCH   7  16
BRANCH   7  19
ATOM     19  O   UNL     1      -6.188  15.259  32.853  0.00  0.00    -0.343 OA
ATOM     20  C   UNL     1      -7.292  14.342  33.059  0.00  0.00    +0.198 C 
ENDBRANCH   7  19
BRANCH   9  21
ATOM     21  O   UNL     1      -5.465  13.431  28.426  0.00  0.00    -0.390 OA
ATOM     22  H   UNL     1      -5.665  12.492  28.408  0.00  0.00    +0.210 HD
ENDBRANCH   9  21
ENDBRANCH   4   5
BRANCH   4  23
ATOM     23  O   UNL     1      -1.928  11.124  31.927  0.00  0.00    -0.387 OA
ATOM     24  H   UNL     1      -1.203  11.544  32.396  0.00  0.00    +0.210 HD
ENDBRANCH   4  23
ENDBRANCH   1   4
BRANCH   1  25
ATOM     25  C   UNL     1      -3.511   9.135  32.876  0.00  0.00    +0.141 C 
BRANCH  25  28
ATOM     26  C   UNL     1      -2.712   7.155  31.633  0.00  0.00    +0.401 C 
ATOM     27  O   UNL     1      -3.045   6.353  32.510  0.00  0.00    -0.226 OA
ATOM     28  N   UNL     1      -2.887   8.474  31.724  0.00  0.00    -0.279 N 
ATOM     29  H   UNL     1      -2.572   9.050  30.957  0.00  0.00    +0.152 HD
BRANCH  26  30
ATOM     30  O   UNL     1      -2.096   6.663  30.441  0.00  0.00    -0.444 OA
BRANCH  30  31
ATOM     31  C   UNL     1      -3.070   5.985  29.644  0.00  0.00    +0.292 C 
BRANCH  31  33
ATOM     32  N   UNL     1      -1.816   6.849  27.692  0.00  0.00    -0.131 NA
ATOM     33  C   UNL     1      -3.003   6.443  28.243  0.00  0.00    +0.120 A 
ATOM     34  C   UNL     1      -4.002   6.567  27.304  0.00  0.00    +0.137 A 
ATOM     35  N   UNL     1      -3.372   7.125  26.229  0.00  0.00    -0.247 N 
ATOM     36  N   UNL     1      -2.050   7.245  26.448  0.00  0.00    -0.065 NA
BRANCH  35  37
ATOM     37  C   UNL     1      -3.968   7.629  25.002  0.00  0.00    +0.184 C 
BRANCH  37  38
ATOM     38  C   UNL     1      -4.432   9.068  25.110  0.00  0.00    +0.017 A 
ATOM     39  C   UNL     1      -3.623  10.154  24.724  0.00  0.00    +0.024 A 
ATOM     40  C   UNL     1      -4.084  11.468  24.839  0.00  0.00    +0.019 A 
ATOM     41 BR   UNL     1      -2.949  12.902  24.356  0.00  0.00    -0.050 Br
ATOM     42  C   UNL     1      -5.366  11.735  25.306  0.00  0.00    +0.034 A 
ATOM     43  C   UNL     1      -6.195  10.670  25.647  0.00  0.00    +0.061 A 
ATOM     44 BR   UNL     1      -7.955  11.037  26.249  0.00  0.00    -0.046 Br
ATOM     45  C   UNL     1      -5.734   9.350  25.546  0.00  0.00    +0.136 A 
BRANCH  45  46
ATOM     46  O   UNL     1      -6.547   8.294  25.864  0.00  0.00    -0.505 OA
ATOM     47  H   UNL     1      -5.976   7.564  26.170  0.00  0.00    +0.292 HD
ENDBRANCH  45  46
ENDBRANCH  37  38
ENDBRANCH  35  37
ENDBRANCH  31  33
ENDBRANCH  30  31
ENDBRANCH  26  30
ENDBRANCH  25  28
ENDBRANCH   1  25
TORSDOF 16
