REMARK VINA RESULT:    -4.029      2.592      5.655
REMARK INTER + INTRA:         -10.041
REMARK INTER:                  -7.328
REMARK INTRA:                  -2.713
REMARK UNBOUND:                -3.067
REMARK  Name = lig_assembled_8.pdb
REMARK  16 active torsions:
REMARK  status: ('A' for Active; 'I' for Inactive)
REMARK    1  A    between atoms: _2  and  _9
REMARK    2  A    between atoms: _4  and  _18
REMARK    3  A    between atoms: _6  and  _7
REMARK    4  A    between atoms: _6  and  _18
REMARK    5  A    between atoms: _14  and  _34
REMARK    6  A    between atoms: _16  and  _22
REMARK    7  A    between atoms: _17  and  _21
REMARK    8  A    between atoms: _21  and  _22
REMARK    9  A    between atoms: _24  and  _25
REMARK   10  A    between atoms: _26  and  _27
REMARK   11  A    between atoms: _28  and  _30
REMARK   12  A    between atoms: _30  and  _31
REMARK   13  A    between atoms: _30  and  _32
REMARK   14  A    between atoms: _32  and  _33
REMARK   15  A    between atoms: _32  and  _34
REMARK   16  A    between atoms: _35  and  _37
REMARK                            x       y       z     vdW  Elec       q    Type
REMARK                         _______ _______ _______ _____ _____    ______ ____
ROOT
ATOM      1  C   UNL     1      -2.957  11.096  26.188  0.00  0.00    +0.163 C 
ENDROOT
BRANCH   1   2
ATOM      2  O   UNL     1      -2.025  11.715  25.287  0.00  0.00    -0.388 OA
ATOM      3  H   UNL     1      -2.504  12.133  24.567  0.00  0.00    +0.210 HD
ENDBRANCH   1   2
BRANCH   1   4
ATOM      4  C   UNL     1      -2.207  10.278  27.234  0.00  0.00    +0.141 C 
BRANCH   4   7
ATOM      5  C   UNL     1      -2.781   9.424  29.481  0.00  0.00    +0.401 C 
ATOM      6  O   UNL     1      -2.231   8.333  29.309  0.00  0.00    -0.226 OA
ATOM      7  N   UNL     1      -2.823  10.389  28.562  0.00  0.00    -0.279 N 
ATOM      8  H   UNL     1      -3.307  11.246  28.792  0.00  0.00    +0.152 HD
BRANCH   5   9
ATOM      9  O   UNL     1      -3.422   9.689  30.731  0.00  0.00    -0.444 OA
BRANCH   9  10
ATOM     10  C   UNL     1      -2.636  10.617  31.483  0.00  0.00    +0.292 C 
BRANCH  10  12
ATOM     11  N   UNL     1      -4.615  11.905  32.203  0.00  0.00    -0.131 NA
ATOM     12  C   UNL     1      -3.370  11.884  31.658  0.00  0.00    +0.121 A 
ATOM     13  C   UNL     1      -2.997  13.172  31.352  0.00  0.00    +0.143 A 
ATOM     14  N   UNL     1      -4.055  13.970  31.754  0.00  0.00    -0.219 N 
ATOM     15  N   UNL     1      -5.021  13.165  32.251  0.00  0.00    -0.060 NA
BRANCH  14  16
ATOM     16  C   UNL     1      -4.157  15.394  31.696  0.00  0.00    +0.081 A 
ATOM     17  C   UNL     1      -4.800  15.969  30.577  0.00  0.00    +0.029 A 
ATOM     18  C   UNL     1      -4.922  17.354  30.434  0.00  0.00    +0.002 A 
ATOM     19  C   UNL     1      -4.405  18.199  31.404  0.00  0.00    +0.001 A 
ATOM     20  C   UNL     1      -3.774  17.657  32.520  0.00  0.00    +0.017 A 
ATOM     21  C   UNL     1      -3.645  16.263  32.681  0.00  0.00    +0.043 A 
ATOM     22 BR   UNL     1      -2.750  15.763  34.288  0.00  0.00    -0.048 Br
ENDBRANCH  14  16
ENDBRANCH  10  12
ENDBRANCH   9  10
ENDBRANCH   5   9
ENDBRANCH   4   7
ENDBRANCH   1   4
BRANCH   1  23
ATOM     23  C   UNL     1      -3.936  10.185  25.428  0.00  0.00    +0.175 C 
BRANCH  23  24
ATOM     24  C   UNL     1      -5.051  10.983  24.738  0.00  0.00    +0.176 C 
ATOM     25  O   UNL     1      -4.475  11.648  23.580  0.00  0.00    -0.332 OA
ATOM     26  C   UNL     1      -5.422  12.378  22.731  0.00  0.00    +0.277 C 
ATOM     27  C   UNL     1      -6.227  13.398  23.573  0.00  0.00    +0.110 C 
ATOM     28  C   UNL     1      -6.833  12.745  24.833  0.00  0.00    +0.143 C 
ATOM     29  C   UNL     1      -5.761  12.010  25.639  0.00  0.00    +0.133 C 
BRANCH  29  30
ATOM     30  N   UNL     1      -6.365  11.320  26.790  0.00  0.00    -0.308 N 
ATOM     31  H   UNL     1      -6.948  10.515  26.604  0.00  0.00    +0.149 HD
ATOM     32  C   UNL     1      -6.194  11.686  28.062  0.00  0.00    +0.210 C 
ATOM     33  C   UNL     1      -5.322  12.931  28.310  0.00  0.00    +0.109 C 
ATOM     34  O   UNL     1      -6.701  11.080  29.007  0.00  0.00    -0.276 OA
ENDBRANCH  29  30
BRANCH  26  35
ATOM     35  C   UNL     1      -6.394  11.404  22.033  0.00  0.00    +0.414 C 
ATOM     36  O   UNL     1      -7.576  11.710  21.883  0.00  0.00    -0.240 OA
ATOM     37  O   UNL     1      -5.996  10.314  21.620  0.00  0.00    -0.240 OA
ENDBRANCH  26  35
BRANCH  28  38
ATOM     38  O   UNL     1      -7.435  13.747  25.653  0.00  0.00    -0.390 OA
ATOM     39  H   UNL     1      -6.845  14.501  25.722  0.00  0.00    +0.210 HD
ENDBRANCH  28  38
BRANCH  26  40
ATOM     40  O   UNL     1      -4.660  13.107  21.734  0.00  0.00    -0.343 OA
ATOM     41  C   UNL     1      -4.152  14.393  22.171  0.00  0.00    +0.198 C 
ENDBRANCH  26  40
ENDBRANCH  23  24
BRANCH  23  42
ATOM     42  O   UNL     1      -4.504   9.210  26.324  0.00  0.00    -0.387 OA
ATOM     43  H   UNL     1      -3.828   8.900  26.931  0.00  0.00    +0.210 HD
ENDBRANCH  23  42
ENDBRANCH   1  23
TORSDOF 14
