REMARK VINA RESULT:    -4.695     11.154     15.572
REMARK INTER + INTRA:         -12.285
REMARK INTER:                  -8.513
REMARK INTRA:                  -3.772
REMARK UNBOUND:                -3.060
REMARK  Name = lig_assembled_37.pdb
REMARK  21 active torsions:
REMARK  status: ('A' for Active; 'I' for Inactive)
REMARK    1  A    between atoms: _2  and  _9
REMARK    2  A    between atoms: _4  and  _24
REMARK    3  A    between atoms: _6  and  _7
REMARK    4  A    between atoms: _6  and  _24
REMARK    5  A    between atoms: _9  and  _10
REMARK    6  A    between atoms: _9  and  _11
REMARK    7  A    between atoms: _11  and  _18
REMARK    8  A    between atoms: _12  and  _13
REMARK    9  A    between atoms: _12  and  _18
REMARK   10  A    between atoms: _20  and  _40
REMARK   11  A    between atoms: _22  and  _28
REMARK   12  A    between atoms: _23  and  _27
REMARK   13  A    between atoms: _27  and  _28
REMARK   14  A    between atoms: _30  and  _31
REMARK   15  A    between atoms: _32  and  _33
REMARK   16  A    between atoms: _34  and  _36
REMARK   17  A    between atoms: _36  and  _37
REMARK   18  A    between atoms: _36  and  _38
REMARK   19  A    between atoms: _38  and  _39
REMARK   20  A    between atoms: _38  and  _40
REMARK   21  A    between atoms: _41  and  _43
REMARK                            x       y       z     vdW  Elec       q    Type
REMARK                         _______ _______ _______ _____ _____    ______ ____
ROOT
ATOM      1  C   UNL     1      -5.071  12.148  11.578  0.00  0.00    +0.141 C 
ENDROOT
BRANCH   1   4
ATOM      2  C   UNL     1      -3.230  11.070  10.330  0.00  0.00    +0.401 C 
ATOM      3  O   UNL     1      -3.826   9.999  10.191  0.00  0.00    -0.226 OA
ATOM      4  N   UNL     1      -3.734  12.126  10.970  0.00  0.00    -0.279 N 
ATOM      5  H   UNL     1      -3.165  12.957  11.041  0.00  0.00    +0.152 HD
BRANCH   2   6
ATOM      6  O   UNL     1      -1.916  11.210   9.784  0.00  0.00    -0.444 OA
BRANCH   6   7
ATOM      7  C   UNL     1      -1.774  12.511   9.208  0.00  0.00    +0.292 C 
BRANCH   7   9
ATOM      8  N   UNL     1      -0.671  13.302  11.282  0.00  0.00    -0.131 NA
ATOM      9  C   UNL     1      -0.728  13.275   9.913  0.00  0.00    +0.120 A 
ATOM     10  C   UNL     1       0.300  14.036   9.405  0.00  0.00    +0.138 A 
ATOM     11  N   UNL     1       0.931  14.524  10.511  0.00  0.00    -0.238 N 
ATOM     12  N   UNL     1       0.355  14.064  11.637  0.00  0.00    -0.065 NA
BRANCH  11  13
ATOM     13  C   UNL     1       2.110  15.362  10.602  0.00  0.00    +0.214 C 
ATOM     14  C   UNL     1       2.641  15.732   9.217  0.00  0.00    +0.045 C 
BRANCH  13  15
ATOM     15  C   UNL     1       1.832  16.612  11.406  0.00  0.00    +0.332 C 
ATOM     16  O   UNL     1       2.334  16.852  12.498  0.00  0.00    -0.248 OA
BRANCH  15  17
ATOM     17  O   UNL     1       0.953  17.425  10.760  0.00  0.00    -0.458 OA
BRANCH  17  18
ATOM     18  C   UNL     1      -0.050  18.048  11.577  0.00  0.00    +0.267 C 
BRANCH  18  19
ATOM     19  C   UNL     1      -1.272  17.169  11.651  0.00  0.00    -0.010 A 
ATOM     20  C   UNL     1      -1.739  16.705  12.889  0.00  0.00    +0.007 A 
ATOM     21  C   UNL     1      -2.887  15.913  12.961  0.00  0.00    +0.000 A 
ATOM     22  C   UNL     1      -3.577  15.577  11.798  0.00  0.00    +0.000 A 
ATOM     23  C   UNL     1      -3.119  16.027  10.562  0.00  0.00    +0.000 A 
ATOM     24  C   UNL     1      -1.970  16.817  10.488  0.00  0.00    +0.007 A 
ENDBRANCH  18  19
ENDBRANCH  17  18
ENDBRANCH  15  17
ENDBRANCH  13  15
ENDBRANCH  11  13
ENDBRANCH   7   9
ENDBRANCH   6   7
ENDBRANCH   2   6
ENDBRANCH   1   4
BRANCH   1  25
ATOM     25  C   UNL     1      -5.030  11.767  13.054  0.00  0.00    +0.163 C 
BRANCH  25  26
ATOM     26  O   UNL     1      -5.771  12.723  13.829  0.00  0.00    -0.388 OA
ATOM     27  H   UNL     1      -5.432  13.605  13.660  0.00  0.00    +0.210 HD
ENDBRANCH  25  26
BRANCH  25  28
ATOM     28  C   UNL     1      -5.602  10.350  13.235  0.00  0.00    +0.175 C 
BRANCH  28  29
ATOM     29  C   UNL     1      -4.613   9.413  13.944  0.00  0.00    +0.176 C 
ATOM     30  O   UNL     1      -4.610   8.145  13.232  0.00  0.00    -0.332 OA
ATOM     31  C   UNL     1      -3.639   7.154  13.706  0.00  0.00    +0.277 C 
ATOM     32  C   UNL     1      -3.820   6.902  15.223  0.00  0.00    +0.110 C 
ATOM     33  C   UNL     1      -3.861   8.224  16.019  0.00  0.00    +0.143 C 
ATOM     34  C   UNL     1      -4.902   9.181  15.438  0.00  0.00    +0.133 C 
BRANCH  34  35
ATOM     35  N   UNL     1      -4.871  10.469  16.150  0.00  0.00    -0.308 N 
ATOM     36  H   UNL     1      -4.017  11.007  16.116  0.00  0.00    +0.149 HD
ATOM     37  C   UNL     1      -5.899  10.973  16.839  0.00  0.00    +0.210 C 
ATOM     38  C   UNL     1      -7.179  10.117  16.894  0.00  0.00    +0.109 C 
ATOM     39  O   UNL     1      -5.849  12.061  17.413  0.00  0.00    -0.276 OA
ENDBRANCH  34  35
BRANCH  31  40
ATOM     40  C   UNL     1      -2.196   7.627  13.430  0.00  0.00    +0.414 C 
ATOM     41  O   UNL     1      -1.294   7.362  14.224  0.00  0.00    -0.240 OA
ATOM     42  O   UNL     1      -1.934   8.272  12.414  0.00  0.00    -0.240 OA
ENDBRANCH  31  40
BRANCH  31  43
ATOM     43  O   UNL     1      -3.888   5.910  13.002  0.00  0.00    -0.343 OA
ATOM     44  C   UNL     1      -4.870   5.994  11.939  0.00  0.00    +0.198 C 
ENDBRANCH  31  43
BRANCH  33  45
ATOM     45  O   UNL     1      -4.179   7.954  17.384  0.00  0.00    -0.390 OA
ATOM     46  H   UNL     1      -3.514   8.349  17.953  0.00  0.00    +0.210 HD
ENDBRANCH  33  45
ENDBRANCH  28  29
BRANCH  28  47
ATOM     47  O   UNL     1      -5.980   9.800  11.958  0.00  0.00    -0.387 OA
ATOM     48  H   UNL     1      -6.305  10.502  11.390  0.00  0.00    +0.210 HD
ENDBRANCH  28  47
ENDBRANCH  25  28
ENDBRANCH   1  25
TORSDOF 18
