REMARK VINA RESULT:    -5.504      3.932     11.172
REMARK INTER + INTRA:         -12.001
REMARK INTER:                  -8.529
REMARK INTRA:                  -3.472
REMARK UNBOUND:                -2.475
REMARK  Name = lig_assembled_25.pdb
REMARK  16 active torsions:
REMARK  status: ('A' for Active; 'I' for Inactive)
REMARK    1  A    between atoms: _2  and  _9
REMARK    2  A    between atoms: _4  and  _25
REMARK    3  A    between atoms: _6  and  _7
REMARK    4  A    between atoms: _6  and  _25
REMARK    5  A    between atoms: _21  and  _41
REMARK    6  A    between atoms: _23  and  _29
REMARK    7  A    between atoms: _24  and  _28
REMARK    8  A    between atoms: _28  and  _29
REMARK    9  A    between atoms: _31  and  _32
REMARK   10  A    between atoms: _33  and  _34
REMARK   11  A    between atoms: _35  and  _37
REMARK   12  A    between atoms: _37  and  _38
REMARK   13  A    between atoms: _37  and  _39
REMARK   14  A    between atoms: _39  and  _40
REMARK   15  A    between atoms: _39  and  _41
REMARK   16  A    between atoms: _42  and  _44
REMARK                            x       y       z     vdW  Elec       q    Type
REMARK                         _______ _______ _______ _____ _____    ______ ____
ROOT
ATOM      1  C   UNL     1      -4.329   7.677  25.068  0.00  0.00    +0.141 C 
ENDROOT
BRANCH   1   4
ATOM      2  C   UNL     1      -2.335   7.514  26.517  0.00  0.00    +0.401 C 
ATOM      3  O   UNL     1      -1.752   6.711  25.785  0.00  0.00    -0.226 OA
ATOM      4  N   UNL     1      -3.545   8.014  26.262  0.00  0.00    -0.279 N 
ATOM      5  H   UNL     1      -3.944   8.659  26.928  0.00  0.00    +0.152 HD
BRANCH   2   6
ATOM      6  O   UNL     1      -1.695   7.948  27.720  0.00  0.00    -0.444 OA
BRANCH   6   7
ATOM      7  C   UNL     1      -2.157   7.157  28.818  0.00  0.00    +0.292 C 
BRANCH   7   9
ATOM      8  N   UNL     1      -3.070   7.542  31.080  0.00  0.00    -0.131 NA
ATOM      9  C   UNL     1      -2.839   8.006  29.814  0.00  0.00    +0.120 A 
ATOM     10  C   UNL     1      -3.349   9.280  29.700  0.00  0.00    +0.138 A 
ATOM     11  N   UNL     1      -3.896   9.532  30.926  0.00  0.00    -0.240 N 
ATOM     12  N   UNL     1      -3.714   8.483  31.756  0.00  0.00    -0.064 NA
BRANCH  11  13
ATOM     13  C   UNL     1      -4.671  10.673  31.385  0.00  0.00    +0.170 C 
ATOM     14  C   UNL     1      -5.806  11.028  30.433  0.00  0.00    -0.011 A 
ATOM     15  C   UNL     1      -5.697  12.378  30.035  0.00  0.00    -0.012 A 
ATOM     16  C   UNL     1      -4.525  12.960  30.658  0.00  0.00    -0.012 A 
ATOM     17  C   UNL     1      -4.027  14.251  30.600  0.00  0.00    +0.009 A 
ATOM     18  C   UNL     1      -2.878  14.554  31.336  0.00  0.00    +0.001 A 
ATOM     19  C   UNL     1      -2.239  13.571  32.111  0.00  0.00    +0.000 A 
ATOM     20  C   UNL     1      -2.738  12.268  32.170  0.00  0.00    +0.006 A 
ATOM     21  C   UNL     1      -6.635  12.936  29.183  0.00  0.00    +0.009 A 
ATOM     22  C   UNL     1      -7.687  12.132  28.732  0.00  0.00    +0.001 A 
ATOM     23  C   UNL     1      -7.793  10.791  29.135  0.00  0.00    +0.000 A 
ATOM     24  C   UNL     1      -6.851  10.226  29.995  0.00  0.00    +0.006 A 
ATOM     25  C   UNL     1      -3.879  11.973  31.439  0.00  0.00    -0.011 A 
ENDBRANCH  11  13
ENDBRANCH   7   9
ENDBRANCH   6   7
ENDBRANCH   2   6
ENDBRANCH   1   4
BRANCH   1  26
ATOM     26  C   UNL     1      -5.754   8.216  25.152  0.00  0.00    +0.163 C 
BRANCH  26  27
ATOM     27  O   UNL     1      -5.953   8.882  26.410  0.00  0.00    -0.388 OA
ATOM     28  H   UNL     1      -5.308   8.565  27.047  0.00  0.00    +0.210 HD
ENDBRANCH  26  27
BRANCH  26  29
ATOM     29  C   UNL     1      -6.012   9.173  23.976  0.00  0.00    +0.175 C 
BRANCH  29  30
ATOM     30  C   UNL     1      -4.998  10.327  23.936  0.00  0.00    +0.176 C 
ATOM     31  O   UNL     1      -5.343  11.261  24.996  0.00  0.00    -0.332 OA
ATOM     32  C   UNL     1      -4.416  12.382  25.179  0.00  0.00    +0.277 C 
ATOM     33  C   UNL     1      -4.223  13.148  23.847  0.00  0.00    +0.110 C 
ATOM     34  C   UNL     1      -3.886  12.192  22.684  0.00  0.00    +0.143 C 
ATOM     35  C   UNL     1      -4.913  11.063  22.586  0.00  0.00    +0.133 C 
BRANCH  35  36
ATOM     36  N   UNL     1      -4.534  10.111  21.530  0.00  0.00    -0.308 N 
ATOM     37  H   UNL     1      -3.651   9.628  21.626  0.00  0.00    +0.149 HD
ATOM     38  C   UNL     1      -5.279   9.844  20.454  0.00  0.00    +0.210 C 
ATOM     39  C   UNL     1      -6.605  10.617  20.325  0.00  0.00    +0.109 C 
ATOM     40  O   UNL     1      -4.942   9.031  19.593  0.00  0.00    -0.276 OA
ENDBRANCH  35  36
BRANCH  32  41
ATOM     41  C   UNL     1      -3.048  11.882  25.689  0.00  0.00    +0.414 C 
ATOM     42  O   UNL     1      -2.990  11.022  26.566  0.00  0.00    -0.240 OA
ATOM     43  O   UNL     1      -2.003  12.339  25.223  0.00  0.00    -0.240 OA
ENDBRANCH  32  41
BRANCH  34  44
ATOM     44  O   UNL     1      -3.867  12.918  21.454  0.00  0.00    -0.390 OA
ATOM     45  H   UNL     1      -3.876  13.860  21.638  0.00  0.00    +0.210 HD
ENDBRANCH  34  44
BRANCH  32  46
ATOM     46  O   UNL     1      -4.996  13.291  26.150  0.00  0.00    -0.343 OA
ATOM     47  C   UNL     1      -6.094  14.097  25.653  0.00  0.00    +0.198 C 
ENDBRANCH  32  46
ENDBRANCH  29  30
BRANCH  29  48
ATOM     48  O   UNL     1      -7.354   9.694  24.045  0.00  0.00    -0.387 OA
ATOM     49  H   UNL     1      -7.442  10.254  24.820  0.00  0.00    +0.210 HD
ENDBRANCH  29  48
ENDBRANCH  26  29
ENDBRANCH   1  26
TORSDOF 14
