REMARK VINA RESULT:    -4.629      2.835      6.585
REMARK INTER + INTRA:         -11.079
REMARK INTER:                  -8.125
REMARK INTRA:                  -2.954
REMARK UNBOUND:                -3.067
REMARK  Name = lig_assembled_8.pdb
REMARK  16 active torsions:
REMARK  status: ('A' for Active; 'I' for Inactive)
REMARK    1  A    between atoms: _2  and  _9
REMARK    2  A    between atoms: _4  and  _18
REMARK    3  A    between atoms: _6  and  _7
REMARK    4  A    between atoms: _6  and  _18
REMARK    5  A    between atoms: _14  and  _34
REMARK    6  A    between atoms: _16  and  _22
REMARK    7  A    between atoms: _17  and  _21
REMARK    8  A    between atoms: _21  and  _22
REMARK    9  A    between atoms: _24  and  _25
REMARK   10  A    between atoms: _26  and  _27
REMARK   11  A    between atoms: _28  and  _30
REMARK   12  A    between atoms: _30  and  _31
REMARK   13  A    between atoms: _30  and  _32
REMARK   14  A    between atoms: _32  and  _33
REMARK   15  A    between atoms: _32  and  _34
REMARK   16  A    between atoms: _35  and  _37
REMARK                            x       y       z     vdW  Elec       q    Type
REMARK                         _______ _______ _______ _____ _____    ______ ____
ROOT
ATOM      1  C   UNL     1      -3.805  13.615  22.288  0.00  0.00    +0.163 C 
ENDROOT
BRANCH   1   2
ATOM      2  O   UNL     1      -3.010  14.809  22.205  0.00  0.00    -0.388 OA
ATOM      3  H   UNL     1      -3.470  15.464  21.674  0.00  0.00    +0.210 HD
ENDBRANCH   1   2
BRANCH   1   4
ATOM      4  C   UNL     1      -3.115  12.476  21.545  0.00  0.00    +0.141 C 
BRANCH   4   7
ATOM      5  C   UNL     1      -3.619  10.119  22.086  0.00  0.00    +0.401 C 
ATOM      6  O   UNL     1      -4.348   9.951  21.105  0.00  0.00    -0.226 OA
ATOM      7  N   UNL     1      -3.007  11.268  22.372  0.00  0.00    -0.279 N 
ATOM      8  H   UNL     1      -2.438  11.311  23.206  0.00  0.00    +0.152 HD
BRANCH   5   9
ATOM      9  O   UNL     1      -3.407   9.029  22.987  0.00  0.00    -0.444 OA
BRANCH   9  10
ATOM     10  C   UNL     1      -4.355   9.101  24.056  0.00  0.00    +0.292 C 
BRANCH  10  12
ATOM     11  N   UNL     1      -2.427  10.037  25.279  0.00  0.00    -0.131 NA
ATOM     12  C   UNL     1      -3.695   9.547  25.296  0.00  0.00    +0.121 A 
ATOM     13  C   UNL     1      -4.164   9.571  26.589  0.00  0.00    +0.143 A 
ATOM     14  N   UNL     1      -3.138  10.114  27.344  0.00  0.00    -0.219 N 
ATOM     15  N   UNL     1      -2.099  10.370  26.519  0.00  0.00    -0.060 NA
BRANCH  14  16
ATOM     16  C   UNL     1      -3.129  10.395  28.746  0.00  0.00    +0.081 A 
ATOM     17  C   UNL     1      -3.542  11.678  29.170  0.00  0.00    +0.029 A 
ATOM     18  C   UNL     1      -3.541  12.039  30.520  0.00  0.00    +0.002 A 
ATOM     19  C   UNL     1      -3.129  11.128  31.481  0.00  0.00    +0.001 A 
ATOM     20  C   UNL     1      -2.725   9.854  31.089  0.00  0.00    +0.017 A 
ATOM     21  C   UNL     1      -2.722   9.474  29.733  0.00  0.00    +0.043 A 
ATOM     22 BR   UNL     1      -2.135   7.683  29.447  0.00  0.00    -0.048 Br
ENDBRANCH  14  16
ENDBRANCH  10  12
ENDBRANCH   9  10
ENDBRANCH   5   9
ENDBRANCH   4   7
ENDBRANCH   1   4
BRANCH   1  23
ATOM     23  C   UNL     1      -5.205  13.843  21.693  0.00  0.00    +0.175 C 
BRANCH  23  24
ATOM     24  C   UNL     1      -5.949  14.992  22.390  0.00  0.00    +0.176 C 
ATOM     25  O   UNL     1      -5.311  16.239  22.001  0.00  0.00    -0.332 OA
ATOM     26  C   UNL     1      -5.956  17.461  22.490  0.00  0.00    +0.277 C 
ATOM     27  C   UNL     1      -6.113  17.411  24.030  0.00  0.00    +0.110 C 
ATOM     28  C   UNL     1      -6.759  16.088  24.494  0.00  0.00    +0.143 C 
ATOM     29  C   UNL     1      -6.010  14.883  23.924  0.00  0.00    +0.133 C 
BRANCH  29  30
ATOM     30  N   UNL     1      -6.685  13.631  24.302  0.00  0.00    -0.308 N 
ATOM     31  H   UNL     1      -7.592  13.445  23.898  0.00  0.00    +0.149 HD
ATOM     32  C   UNL     1      -6.178  12.726  25.143  0.00  0.00    +0.210 C 
ATOM     33  C   UNL     1      -4.805  13.053  25.762  0.00  0.00    +0.109 C 
ATOM     34  O   UNL     1      -6.760  11.680  25.430  0.00  0.00    -0.276 OA
ENDBRANCH  29  30
BRANCH  26  35
ATOM     35  C   UNL     1      -7.342  17.647  21.837  0.00  0.00    +0.414 C 
ATOM     36  O   UNL     1      -7.528  17.303  20.670  0.00  0.00    -0.240 OA
ATOM     37  O   UNL     1      -8.272  18.140  22.476  0.00  0.00    -0.240 OA
ENDBRANCH  26  35
BRANCH  28  38
ATOM     38  O   UNL     1      -6.745  16.020  25.920  0.00  0.00    -0.390 OA
ATOM     39  H   UNL     1      -6.105  15.363  26.204  0.00  0.00    +0.210 HD
ENDBRANCH  28  38
BRANCH  26  40
ATOM     40  O   UNL     1      -5.103  18.585  22.154  0.00  0.00    -0.343 OA
ATOM     41  C   UNL     1      -3.943  18.254  21.348  0.00  0.00    +0.198 C 
ENDBRANCH  26  40
ENDBRANCH  23  24
BRANCH  23  42
ATOM     42  O   UNL     1      -5.981  12.631  21.768  0.00  0.00    -0.387 OA
ATOM     43  H   UNL     1      -5.414  11.905  22.040  0.00  0.00    +0.210 HD
ENDBRANCH  23  42
ENDBRANCH   1  23
TORSDOF 14
