REMARK VINA RESULT:    -4.805      1.844      2.471
REMARK INTER + INTRA:         -10.824
REMARK INTER:                  -8.004
REMARK INTRA:                  -2.820
REMARK UNBOUND:                -2.508
REMARK  Name = lig_assembled_48.pdb
REMARK  16 active torsions:
REMARK  status: ('A' for Active; 'I' for Inactive)
REMARK    1  A    between atoms: _2  and  _9
REMARK    2  A    between atoms: _4  and  _18
REMARK    3  A    between atoms: _6  and  _7
REMARK    4  A    between atoms: _6  and  _18
REMARK    5  A    between atoms: _14  and  _34
REMARK    6  A    between atoms: _16  and  _22
REMARK    7  A    between atoms: _17  and  _21
REMARK    8  A    between atoms: _21  and  _22
REMARK    9  A    between atoms: _24  and  _25
REMARK   10  A    between atoms: _26  and  _27
REMARK   11  A    between atoms: _28  and  _30
REMARK   12  A    between atoms: _30  and  _31
REMARK   13  A    between atoms: _30  and  _32
REMARK   14  A    between atoms: _32  and  _33
REMARK   15  A    between atoms: _32  and  _34
REMARK   16  A    between atoms: _35  and  _37
REMARK                            x       y       z     vdW  Elec       q    Type
REMARK                         _______ _______ _______ _____ _____    ______ ____
ROOT
ATOM      1  C   UNL     1      -2.128   9.243  28.360  0.00  0.00    +0.163 C 
ENDROOT
BRANCH   1   2
ATOM      2  O   UNL     1      -1.579  10.201  27.440  0.00  0.00    -0.388 OA
ATOM      3  H   UNL     1      -1.459  11.042  27.887  0.00  0.00    +0.210 HD
ENDBRANCH   1   2
BRANCH   1   4
ATOM      4  C   UNL     1      -2.083   7.847  27.747  0.00  0.00    +0.141 C 
BRANCH   4   7
ATOM      5  C   UNL     1      -3.872   7.203  26.168  0.00  0.00    +0.401 C 
ATOM      6  O   UNL     1      -4.532   6.598  27.016  0.00  0.00    -0.226 OA
ATOM      7  N   UNL     1      -2.712   7.811  26.421  0.00  0.00    -0.279 N 
ATOM      8  H   UNL     1      -2.239   8.273  25.657  0.00  0.00    +0.152 HD
BRANCH   5   9
ATOM      9  O   UNL     1      -4.357   7.265  24.825  0.00  0.00    -0.444 OA
BRANCH   9  10
ATOM     10  C   UNL     1      -5.308   8.327  24.709  0.00  0.00    +0.292 C 
BRANCH  10  12
ATOM     11  N   UNL     1      -3.430   9.600  23.732  0.00  0.00    -0.131 NA
ATOM     12  C   UNL     1      -4.776   9.391  23.840  0.00  0.00    +0.120 A 
ATOM     13  C   UNL     1      -5.437  10.283  23.024  0.00  0.00    +0.137 A 
ATOM     14  N   UNL     1      -4.438  10.945  22.373  0.00  0.00    -0.248 N 
ATOM     15  N   UNL     1      -3.233  10.578  22.861  0.00  0.00    -0.065 NA
BRANCH  14  16
ATOM     16  C   UNL     1      -4.488  11.885  21.259  0.00  0.00    +0.109 C 
ATOM     17  C   UNL     1      -5.825  12.649  21.240  0.00  0.00    +0.027 C 
ATOM     18  C   UNL     1      -5.902  13.670  22.372  0.00  0.00    +0.002 C 
ATOM     19  C   UNL     1      -4.774  14.689  22.263  0.00  0.00    +0.000 C 
ATOM     20  C   UNL     1      -3.398  14.032  22.196  0.00  0.00    +0.002 C 
ATOM     21  C   UNL     1      -3.321  12.889  21.176  0.00  0.00    +0.027 C 
ENDBRANCH  14  16
ENDBRANCH  10  12
ENDBRANCH   9  10
ENDBRANCH   5   9
ENDBRANCH   4   7
ENDBRANCH   1   4
BRANCH   1  22
ATOM     22  C   UNL     1      -3.580   9.599  28.723  0.00  0.00    +0.175 C 
BRANCH  22  23
ATOM     23  C   UNL     1      -3.666  10.870  29.581  0.00  0.00    +0.176 C 
ATOM     24  O   UNL     1      -4.210  10.498  30.877  0.00  0.00    -0.332 OA
ATOM     25  C   UNL     1      -4.267  11.573  31.873  0.00  0.00    +0.277 C 
ATOM     26  C   UNL     1      -5.040  12.791  31.310  0.00  0.00    +0.110 C 
ATOM     27  C   UNL     1      -4.518  13.203  29.918  0.00  0.00    +0.143 C 
ATOM     28  C   UNL     1      -4.498  12.009  28.964  0.00  0.00    +0.133 C 
BRANCH  28  29
ATOM     29  N   UNL     1      -3.917  12.395  27.668  0.00  0.00    -0.308 N 
ATOM     30  H   UNL     1      -2.955  12.704  27.655  0.00  0.00    +0.149 HD
ATOM     31  C   UNL     1      -4.578  12.363  26.507  0.00  0.00    +0.210 C 
ATOM     32  C   UNL     1      -6.049  11.912  26.564  0.00  0.00    +0.109 C 
ATOM     33  O   UNL     1      -4.061  12.678  25.435  0.00  0.00    -0.276 OA
ENDBRANCH  28  29
BRANCH  25  34
ATOM     34  C   UNL     1      -2.847  12.010  32.288  0.00  0.00    +0.414 C 
ATOM     35  O   UNL     1      -2.655  13.132  32.755  0.00  0.00    -0.240 OA
ATOM     36  O   UNL     1      -1.894  11.242  32.155  0.00  0.00    -0.240 OA
ENDBRANCH  25  34
BRANCH  27  37
ATOM     37  O   UNL     1      -5.353  14.227  29.374  0.00  0.00    -0.390 OA
ATOM     38  H   UNL     1      -6.095  13.825  28.916  0.00  0.00    +0.210 HD
ENDBRANCH  27  37
BRANCH  25  39
ATOM     39  O   UNL     1      -4.982  11.073  33.032  0.00  0.00    -0.343 OA
ATOM     40  C   UNL     1      -5.305   9.660  32.991  0.00  0.00    +0.198 C 
ENDBRANCH  25  39
ENDBRANCH  22  23
BRANCH  22  41
ATOM     41  O   UNL     1      -4.205   8.495  29.407  0.00  0.00    -0.387 OA
ATOM     42  H   UNL     1      -4.950   8.816  29.921  0.00  0.00    +0.210 HD
ENDBRANCH  22  41
ENDBRANCH   1  22
TORSDOF 14
