REMARK VINA RESULT:    -5.371      4.092      8.344
REMARK INTER + INTRA:         -12.129
REMARK INTER:                  -9.916
REMARK INTRA:                  -2.212
REMARK UNBOUND:                -2.363
REMARK  Name = lig_assembled_59.pdb
REMARK  18 active torsions:
REMARK  status: ('A' for Active; 'I' for Inactive)
REMARK    1  A    between atoms: _2  and  _10
REMARK    2  A    between atoms: _5  and  _20
REMARK    3  A    between atoms: _7  and  _8
REMARK    4  A    between atoms: _7  and  _20
REMARK    5  A    between atoms: _13  and  _14
REMARK    6  A    between atoms: _14  and  _15
REMARK    7  A    between atoms: _16  and  _36
REMARK    8  A    between atoms: _18  and  _24
REMARK    9  A    between atoms: _19  and  _23
REMARK   10  A    between atoms: _23  and  _24
REMARK   11  A    between atoms: _26  and  _27
REMARK   12  A    between atoms: _28  and  _29
REMARK   13  A    between atoms: _30  and  _32
REMARK   14  A    between atoms: _32  and  _33
REMARK   15  A    between atoms: _32  and  _34
REMARK   16  A    between atoms: _34  and  _35
REMARK   17  A    between atoms: _34  and  _36
REMARK   18  A    between atoms: _37  and  _39
REMARK                            x       y       z     vdW  Elec       q    Type
REMARK                         _______ _______ _______ _____ _____    ______ ____
ROOT
ATOM      1  C   UNL     1      -3.227  11.823  25.101  0.00  0.00    +0.163 C 
ENDROOT
BRANCH   1   2
ATOM      2  O   UNL     1      -2.002  11.073  25.066  0.00  0.00    -0.388 OA
ATOM      3  H   UNL     1      -1.404  11.466  24.426  0.00  0.00    +0.210 HD
ENDBRANCH   1   2
BRANCH   1   4
ATOM      4  C   UNL     1      -3.669  12.089  26.550  0.00  0.00    +0.175 C 
BRANCH   4   5
ATOM      5  C   UNL     1      -3.380  10.895  27.471  0.00  0.00    +0.176 C 
ATOM      6  O   UNL     1      -4.003   9.718  26.887  0.00  0.00    -0.332 OA
ATOM      7  C   UNL     1      -3.742   8.452  27.579  0.00  0.00    +0.277 C 
ATOM      8  C   UNL     1      -4.131   8.563  29.074  0.00  0.00    +0.110 C 
ATOM      9  C   UNL     1      -3.517   9.817  29.731  0.00  0.00    +0.143 C 
ATOM     10  C   UNL     1      -3.847  11.075  28.927  0.00  0.00    +0.133 C 
BRANCH  10  11
ATOM     11  N   UNL     1      -3.185  12.250  29.514  0.00  0.00    -0.308 N 
ATOM     12  H   UNL     1      -2.174  12.270  29.518  0.00  0.00    +0.149 HD
ATOM     13  C   UNL     1      -3.831  13.293  30.042  0.00  0.00    +0.210 C 
ATOM     14  C   UNL     1      -5.369  13.222  30.045  0.00  0.00    +0.109 C 
ATOM     15  O   UNL     1      -3.249  14.271  30.514  0.00  0.00    -0.276 OA
ENDBRANCH  10  11
BRANCH   7  16
ATOM     16  C   UNL     1      -2.255   8.061  27.461  0.00  0.00    +0.414 C 
ATOM     17  O   UNL     1      -1.725   7.366  28.327  0.00  0.00    -0.240 OA
ATOM     18  O   UNL     1      -1.584   8.439  26.499  0.00  0.00    -0.240 OA
ENDBRANCH   7  16
BRANCH   7  19
ATOM     19  O   UNL     1      -4.567   7.428  26.967  0.00  0.00    -0.343 OA
ATOM     20  C   UNL     1      -4.694   7.524  25.525  0.00  0.00    +0.198 C 
ENDBRANCH   7  19
BRANCH   9  21
ATOM     21  O   UNL     1      -4.021   9.961  31.059  0.00  0.00    -0.390 OA
ATOM     22  H   UNL     1      -4.062  10.893  31.287  0.00  0.00    +0.210 HD
ENDBRANCH   9  21
ENDBRANCH   4   5
BRANCH   4  23
ATOM     23  O   UNL     1      -5.072  12.418  26.589  0.00  0.00    -0.387 OA
ATOM     24  H   UNL     1      -5.261  13.096  25.936  0.00  0.00    +0.210 HD
ENDBRANCH   4  23
ENDBRANCH   1   4
BRANCH   1  25
ATOM     25  C   UNL     1      -3.048  13.150  24.371  0.00  0.00    +0.141 C 
BRANCH  25  28
ATOM     26  C   UNL     1      -5.141  13.833  23.250  0.00  0.00    +0.401 C 
ATOM     27  O   UNL     1      -5.639  14.319  24.268  0.00  0.00    -0.226 OA
ATOM     28  N   UNL     1      -3.937  13.261  23.209  0.00  0.00    -0.279 N 
ATOM     29  H   UNL     1      -3.620  12.882  22.328  0.00  0.00    +0.152 HD
BRANCH  26  30
ATOM     30  O   UNL     1      -5.884  13.870  22.029  0.00  0.00    -0.444 OA
BRANCH  30  31
ATOM     31  C   UNL     1      -6.353  12.556  21.714  0.00  0.00    +0.292 C 
BRANCH  31  33
ATOM     32  N   UNL     1      -7.166  12.616  19.381  0.00  0.00    -0.131 NA
ATOM     33  C   UNL     1      -6.185  12.285  20.274  0.00  0.00    +0.121 A 
ATOM     34  C   UNL     1      -5.137  11.707  19.597  0.00  0.00    +0.145 A 
ATOM     35  N   UNL     1      -5.527  11.707  18.277  0.00  0.00    -0.202 N 
ATOM     36  N   UNL     1      -6.759  12.266  18.168  0.00  0.00    -0.059 NA
BRANCH  35  37
ATOM     37  C   UNL     1      -4.803  11.202  17.163  0.00  0.00    +0.156 A 
ATOM     38  C   UNL     1      -4.159  12.097  16.310  0.00  0.00    +0.048 A 
ATOM     39  C   UNL     1      -3.486  11.596  15.197  0.00  0.00    +0.011 A 
ATOM     40  C   UNL     1      -3.461  10.221  14.956  0.00  0.00    -0.004 A 
ATOM     41  C   UNL     1      -4.132   9.404  15.863  0.00  0.00    +0.119 A 
ATOM     42  N   UNL     1      -4.789   9.856  16.958  0.00  0.00    -0.236 NA
BRANCH  40  43
ATOM     43  C   UNL     1      -2.823   9.670  13.715  0.00  0.00    +0.192 C 
BRANCH  43  44
ATOM     44  O   UNL     1      -1.969  10.625  13.104  0.00  0.00    -0.390 OA
ATOM     45  H   UNL     1      -2.470  11.458  13.047  0.00  0.00    +0.210 HD
ENDBRANCH  43  44
ENDBRANCH  40  43
ENDBRANCH  35  37
ENDBRANCH  31  33
ENDBRANCH  30  31
ENDBRANCH  26  30
ENDBRANCH  25  28
ENDBRANCH   1  25
TORSDOF 16
