REMARK VINA RESULT:    -4.395      1.797      2.241
REMARK INTER + INTRA:         -11.426
REMARK INTER:                  -7.146
REMARK INTRA:                  -4.280
REMARK UNBOUND:                -3.048
REMARK  Name = lig_assembled_50.pdb
REMARK  20 active torsions:
REMARK  status: ('A' for Active; 'I' for Inactive)
REMARK    1  A    between atoms: _2  and  _9
REMARK    2  A    between atoms: _4  and  _17
REMARK    3  A    between atoms: _5  and  _10
REMARK    4  A    between atoms: _5  and  _11
REMARK    5  A    between atoms: _6  and  _7
REMARK    6  A    between atoms: _6  and  _17
REMARK    7  A    between atoms: _9  and  _10
REMARK    8  A    between atoms: _10  and  _12
REMARK    9  A    between atoms: _13  and  _33
REMARK   10  A    between atoms: _15  and  _21
REMARK   11  A    between atoms: _16  and  _20
REMARK   12  A    between atoms: _20  and  _21
REMARK   13  A    between atoms: _23  and  _24
REMARK   14  A    between atoms: _25  and  _26
REMARK   15  A    between atoms: _27  and  _29
REMARK   16  A    between atoms: _29  and  _30
REMARK   17  A    between atoms: _29  and  _31
REMARK   18  A    between atoms: _31  and  _32
REMARK   19  A    between atoms: _31  and  _33
REMARK   20  A    between atoms: _34  and  _36
REMARK                            x       y       z     vdW  Elec       q    Type
REMARK                         _______ _______ _______ _____ _____    ______ ____
ROOT
ATOM      1  C   UNL     1      -6.010  11.774  25.839  0.00  0.00    +0.163 C 
ENDROOT
BRANCH   1   2
ATOM      2  O   UNL     1      -5.387  10.843  24.939  0.00  0.00    -0.388 OA
ATOM      3  H   UNL     1      -4.465  11.083  24.816  0.00  0.00    +0.210 HD
ENDBRANCH   1   2
BRANCH   1   4
ATOM      4  C   UNL     1      -5.977  11.248  27.284  0.00  0.00    +0.175 C 
BRANCH   4   5
ATOM      5  C   UNL     1      -4.583  10.746  27.686  0.00  0.00    +0.176 C 
ATOM      6  O   UNL     1      -4.373   9.454  27.052  0.00  0.00    -0.332 OA
ATOM      7  C   UNL     1      -3.044   8.865  27.238  0.00  0.00    +0.277 C 
ATOM      8  C   UNL     1      -2.699   8.770  28.744  0.00  0.00    +0.110 C 
ATOM      9  C   UNL     1      -2.937  10.113  29.468  0.00  0.00    +0.143 C 
ATOM     10  C   UNL     1      -4.349  10.636  29.204  0.00  0.00    +0.133 C 
BRANCH  10  11
ATOM     11  N   UNL     1      -4.535  11.956  29.826  0.00  0.00    -0.308 N 
ATOM     12  H   UNL     1      -3.938  12.711  29.518  0.00  0.00    +0.149 HD
ATOM     13  C   UNL     1      -5.439  12.222  30.772  0.00  0.00    +0.210 C 
ATOM     14  C   UNL     1      -6.315  11.044  31.239  0.00  0.00    +0.109 C 
ATOM     15  O   UNL     1      -5.582  13.341  31.265  0.00  0.00    -0.276 OA
ENDBRANCH  10  11
BRANCH   7  16
ATOM     16  C   UNL     1      -1.968   9.702  26.515  0.00  0.00    +0.414 C 
ATOM     17  O   UNL     1      -2.233  10.271  25.457  0.00  0.00    -0.240 OA
ATOM     18  O   UNL     1      -0.836   9.808  26.989  0.00  0.00    -0.240 OA
ENDBRANCH   7  16
BRANCH   9  19
ATOM     19  O   UNL     1      -2.754   9.941  30.874  0.00  0.00    -0.390 OA
ATOM     20  H   UNL     1      -3.591  10.072  31.325  0.00  0.00    +0.210 HD
ENDBRANCH   9  19
BRANCH   7  21
ATOM     21  O   UNL     1      -3.067   7.521  26.689  0.00  0.00    -0.343 OA
ATOM     22  C   UNL     1      -2.411   6.516  27.502  0.00  0.00    +0.198 C 
ENDBRANCH   7  21
ENDBRANCH   4   5
BRANCH   4  23
ATOM     23  O   UNL     1      -6.951  10.198  27.453  0.00  0.00    -0.387 OA
ATOM     24  H   UNL     1      -6.737   9.685  28.236  0.00  0.00    +0.210 HD
ENDBRANCH   4  23
ENDBRANCH   1   4
BRANCH   1  25
ATOM     25  C   UNL     1      -5.298  13.121  25.771  0.00  0.00    +0.141 C 
BRANCH  25  28
ATOM     26  C   UNL     1      -3.908  13.600  23.785  0.00  0.00    +0.401 C 
ATOM     27  O   UNL     1      -2.850  13.274  24.330  0.00  0.00    -0.226 OA
ATOM     28  N   UNL     1      -5.098  13.565  24.386  0.00  0.00    -0.279 N 
ATOM     29  H   UNL     1      -5.907  13.861  23.859  0.00  0.00    +0.152 HD
BRANCH  26  30
ATOM     30  O   UNL     1      -3.880  14.049  22.428  0.00  0.00    -0.444 OA
BRANCH  30  31
ATOM     31  C   UNL     1      -3.369  13.008  21.591  0.00  0.00    +0.292 C 
BRANCH  31  33
ATOM     32  N   UNL     1      -5.551  11.881  21.930  0.00  0.00    -0.131 NA
ATOM     33  C   UNL     1      -4.198  11.792  21.716  0.00  0.00    +0.120 A 
ATOM     34  C   UNL     1      -3.841  10.462  21.641  0.00  0.00    +0.137 A 
ATOM     35  N   UNL     1      -5.012   9.799  21.825  0.00  0.00    -0.249 N 
ATOM     36  N   UNL     1      -6.041  10.652  21.981  0.00  0.00    -0.065 NA
BRANCH  35  37
ATOM     37  C   UNL     1      -5.237   8.372  21.874  0.00  0.00    +0.178 C 
BRANCH  37  38
ATOM     38  C   UNL     1      -5.099   7.765  23.275  0.00  0.00    +0.161 C 
BRANCH  38  39
ATOM     39  O   UNL     1      -4.115   8.433  24.070  0.00  0.00    -0.388 OA
ATOM     40  H   UNL     1      -3.272   7.938  24.003  0.00  0.00    +0.210 HD
ENDBRANCH  38  39
BRANCH  38  41
ATOM     41  C   UNL     1      -6.423   7.691  24.046  0.00  0.00    +0.189 C 
BRANCH  41  42
ATOM     42  O   UNL     1      -6.281   8.196  25.374  0.00  0.00    -0.392 OA
ATOM     43  H   UNL     1      -6.333   9.170  25.336  0.00  0.00    +0.210 HD
ENDBRANCH  41  42
ENDBRANCH  38  41
ENDBRANCH  37  38
ENDBRANCH  35  37
ENDBRANCH  31  33
ENDBRANCH  30  31
ENDBRANCH  26  30
ENDBRANCH  25  28
ENDBRANCH   1  25
TORSDOF 18
