REMARK VINA RESULT:    -4.501     10.323     14.227
REMARK INTER + INTRA:         -11.148
REMARK INTER:                  -7.790
REMARK INTRA:                  -3.358
REMARK UNBOUND:                -3.358
REMARK  Name = lig_assembled_42.pdb
REMARK  16 active torsions:
REMARK  status: ('A' for Active; 'I' for Inactive)
REMARK    1  A    between atoms: _2  and  _9
REMARK    2  A    between atoms: _4  and  _21
REMARK    3  A    between atoms: _6  and  _7
REMARK    4  A    between atoms: _6  and  _21
REMARK    5  A    between atoms: _17  and  _37
REMARK    6  A    between atoms: _19  and  _25
REMARK    7  A    between atoms: _20  and  _24
REMARK    8  A    between atoms: _24  and  _25
REMARK    9  A    between atoms: _27  and  _28
REMARK   10  A    between atoms: _29  and  _30
REMARK   11  A    between atoms: _31  and  _33
REMARK   12  A    between atoms: _33  and  _34
REMARK   13  A    between atoms: _33  and  _35
REMARK   14  A    between atoms: _35  and  _36
REMARK   15  A    between atoms: _35  and  _37
REMARK   16  A    between atoms: _38  and  _40
REMARK                            x       y       z     vdW  Elec       q    Type
REMARK                         _______ _______ _______ _____ _____    ______ ____
ROOT
ATOM      1  C   UNL     1      -3.542  10.480  31.399  0.00  0.00    +0.163 C 
ENDROOT
BRANCH   1   2
ATOM      2  O   UNL     1      -4.687  10.294  32.246  0.00  0.00    -0.388 OA
ATOM      3  H   UNL     1      -5.489  10.378  31.725  0.00  0.00    +0.210 HD
ENDBRANCH   1   2
BRANCH   1   4
ATOM      4  C   UNL     1      -2.449  11.229  32.155  0.00  0.00    +0.141 C 
BRANCH   4   7
ATOM      5  C   UNL     1      -2.439  13.553  32.994  0.00  0.00    +0.401 C 
ATOM      6  O   UNL     1      -1.407  13.864  32.394  0.00  0.00    -0.226 OA
ATOM      7  N   UNL     1      -2.993  12.341  32.944  0.00  0.00    -0.279 N 
ATOM      8  H   UNL     1      -3.835  12.179  33.478  0.00  0.00    +0.152 HD
BRANCH   5   9
ATOM      9  O   UNL     1      -3.096  14.533  33.801  0.00  0.00    -0.444 OA
BRANCH   9  10
ATOM     10  C   UNL     1      -3.491  15.638  32.984  0.00  0.00    +0.292 C 
BRANCH  10  12
ATOM     11  N   UNL     1      -5.477  14.363  32.216  0.00  0.00    -0.131 NA
ATOM     12  C   UNL     1      -4.433  15.197  31.938  0.00  0.00    +0.121 A 
ATOM     13  C   UNL     1      -4.451  15.504  30.599  0.00  0.00    +0.143 A 
ATOM     14  N   UNL     1      -5.535  14.830  30.090  0.00  0.00    -0.220 N 
ATOM     15  N   UNL     1      -6.144  14.144  31.089  0.00  0.00    -0.060 NA
BRANCH  14  16
ATOM     16  C   UNL     1      -6.003  14.802  28.752  0.00  0.00    +0.071 A 
ATOM     17  C   UNL     1      -5.809  13.658  27.963  0.00  0.00    +0.077 A 
ATOM     18  C   UNL     1      -6.283  13.680  26.669  0.00  0.00    +0.168 A 
ATOM     19  O   UNL     1      -6.180  12.657  25.781  0.00  0.00    -0.453 OA
ATOM     20  C   UNL     1      -6.839  13.231  24.633  0.00  0.00    +0.466 C 
ATOM     21  O   UNL     1      -7.310  14.577  24.857  0.00  0.00    -0.453 OA
ATOM     22  C   UNL     1      -6.927  14.774  26.146  0.00  0.00    +0.166 A 
ATOM     23  C   UNL     1      -7.134  15.916  26.890  0.00  0.00    +0.051 A 
ATOM     24  C   UNL     1      -6.666  15.931  28.211  0.00  0.00    +0.031 A 
ENDBRANCH  14  16
ENDBRANCH  10  12
ENDBRANCH   9  10
ENDBRANCH   5   9
ENDBRANCH   4   7
ENDBRANCH   1   4
BRANCH   1  25
ATOM     25  C   UNL     1      -3.918  11.264  30.130  0.00  0.00    +0.175 C 
BRANCH  25  26
ATOM     26  C   UNL     1      -3.879  10.383  28.873  0.00  0.00    +0.176 C 
ATOM     27  O   UNL     1      -3.093  11.076  27.865  0.00  0.00    -0.332 OA
ATOM     28  C   UNL     1      -2.856  10.333  26.623  0.00  0.00    +0.277 C 
ATOM     29  C   UNL     1      -4.198   9.864  26.009  0.00  0.00    +0.110 C 
ATOM     30  C   UNL     1      -5.083   9.149  27.052  0.00  0.00    +0.143 C 
ATOM     31  C   UNL     1      -5.260  10.009  28.304  0.00  0.00    +0.133 C 
BRANCH  31  32
ATOM     32  N   UNL     1      -6.031   9.282  29.324  0.00  0.00    -0.308 N 
ATOM     33  H   UNL     1      -5.615   8.456  29.730  0.00  0.00    +0.149 HD
ATOM     34  C   UNL     1      -7.246   9.642  29.749  0.00  0.00    +0.210 C 
ATOM     35  C   UNL     1      -7.863  10.891  29.092  0.00  0.00    +0.109 C 
ATOM     36  O   UNL     1      -7.862   9.022  30.616  0.00  0.00    -0.276 OA
ENDBRANCH  31  32
BRANCH  28  37
ATOM     37  C   UNL     1      -1.952   9.109  26.882  0.00  0.00    +0.414 C 
ATOM     38  O   UNL     1      -1.133   9.127  27.799  0.00  0.00    -0.240 OA
ATOM     39  O   UNL     1      -2.043   8.106  26.173  0.00  0.00    -0.240 OA
ENDBRANCH  28  37
BRANCH  30  40
ATOM     40  O   UNL     1      -6.364   8.870  26.487  0.00  0.00    -0.390 OA
ATOM     41  H   UNL     1      -6.541   7.928  26.542  0.00  0.00    +0.210 HD
ENDBRANCH  30  40
BRANCH  28  42
ATOM     42  O   UNL     1      -2.210  11.227  25.681  0.00  0.00    -0.343 OA
ATOM     43  C   UNL     1      -2.943  11.455  24.451  0.00  0.00    +0.198 C 
ENDBRANCH  28  42
ENDBRANCH  25  26
BRANCH  25  44
ATOM     44  O   UNL     1      -3.042  12.398  29.969  0.00  0.00    -0.387 OA
ATOM     45  H   UNL     1      -2.205  12.220  30.404  0.00  0.00    +0.210 HD
ENDBRANCH  25  44
ENDBRANCH   1  25
TORSDOF 14
