REMARK VINA RESULT:    -5.167      2.944      5.634
REMARK INTER + INTRA:         -11.326
REMARK INTER:                  -8.484
REMARK INTRA:                  -2.842
REMARK UNBOUND:                -1.779
REMARK  Name = lig_assembled_14.pdb
REMARK  18 active torsions:
REMARK  status: ('A' for Active; 'I' for Inactive)
REMARK    1  A    between atoms: _2  and  _10
REMARK    2  A    between atoms: _3  and  _11
REMARK    3  A    between atoms: _5  and  _19
REMARK    4  A    between atoms: _7  and  _8
REMARK    5  A    between atoms: _7  and  _19
REMARK    6  A    between atoms: _10  and  _11
REMARK    7  A    between atoms: _15  and  _35
REMARK    8  A    between atoms: _17  and  _23
REMARK    9  A    between atoms: _18  and  _22
REMARK   10  A    between atoms: _22  and  _23
REMARK   11  A    between atoms: _25  and  _26
REMARK   12  A    between atoms: _27  and  _28
REMARK   13  A    between atoms: _29  and  _31
REMARK   14  A    between atoms: _31  and  _32
REMARK   15  A    between atoms: _31  and  _33
REMARK   16  A    between atoms: _33  and  _34
REMARK   17  A    between atoms: _33  and  _35
REMARK   18  A    between atoms: _36  and  _38
REMARK                            x       y       z     vdW  Elec       q    Type
REMARK                         _______ _______ _______ _____ _____    ______ ____
ROOT
ATOM      1  C   UNL     1      -2.743  11.381  25.832  0.00  0.00    +0.163 C 
ENDROOT
BRANCH   1   2
ATOM      2  O   UNL     1      -1.945  12.295  25.062  0.00  0.00    -0.388 OA
ATOM      3  H   UNL     1      -1.838  13.116  25.549  0.00  0.00    +0.210 HD
ENDBRANCH   1   2
BRANCH   1   4
ATOM      4  C   UNL     1      -3.883  10.795  24.981  0.00  0.00    +0.175 C 
BRANCH   4   5
ATOM      5  C   UNL     1      -4.918  11.859  24.589  0.00  0.00    +0.176 C 
ATOM      6  O   UNL     1      -4.299  12.749  23.619  0.00  0.00    -0.332 OA
ATOM      7  C   UNL     1      -5.178  13.773  23.048  0.00  0.00    +0.277 C 
ATOM      8  C   UNL     1      -5.843  14.605  24.172  0.00  0.00    +0.110 C 
ATOM      9  C   UNL     1      -6.487  13.701  25.244  0.00  0.00    +0.143 C 
ATOM     10  C   UNL     1      -5.486  12.671  25.768  0.00  0.00    +0.133 C 
BRANCH  10  11
ATOM     11  N   UNL     1      -6.135  11.760  26.724  0.00  0.00    -0.308 N 
ATOM     12  H   UNL     1      -6.847  11.136  26.371  0.00  0.00    +0.149 HD
ATOM     13  C   UNL     1      -5.846  11.706  28.027  0.00  0.00    +0.210 C 
ATOM     14  C   UNL     1      -4.775  12.688  28.537  0.00  0.00    +0.109 C 
ATOM     15  O   UNL     1      -6.396  10.922  28.801  0.00  0.00    -0.276 OA
ENDBRANCH  10  11
BRANCH   7  16
ATOM     16  C   UNL     1      -6.271  13.129  22.169  0.00  0.00    +0.414 C 
ATOM     17  O   UNL     1      -7.324  13.726  21.951  0.00  0.00    -0.240 OA
ATOM     18  O   UNL     1      -6.099  12.012  21.679  0.00  0.00    -0.240 OA
ENDBRANCH   7  16
BRANCH   9  19
ATOM     19  O   UNL     1      -6.953  14.500  26.332  0.00  0.00    -0.390 OA
ATOM     20  H   UNL     1      -6.263  14.569  26.997  0.00  0.00    +0.210 HD
ENDBRANCH   9  19
BRANCH   7  21
ATOM     21  O   UNL     1      -4.365  14.663  22.241  0.00  0.00    -0.343 OA
ATOM     22  C   UNL     1      -4.745  16.061  22.298  0.00  0.00    +0.198 C 
ENDBRANCH   7  21
ENDBRANCH   4   5
BRANCH   4  23
ATOM     23  O   UNL     1      -4.524   9.714  25.687  0.00  0.00    -0.387 OA
ATOM     24  H   UNL     1      -5.218   9.340  25.139  0.00  0.00    +0.210 HD
ENDBRANCH   4  23
ENDBRANCH   1   4
BRANCH   1  25
ATOM     25  C   UNL     1      -1.871  10.250  26.365  0.00  0.00    +0.141 C 
BRANCH  25  28
ATOM     26  C   UNL     1      -2.012   8.756  28.329  0.00  0.00    +0.401 C 
ATOM     27  O   UNL     1      -1.646   7.754  27.711  0.00  0.00    -0.226 OA
ATOM     28  N   UNL     1      -2.151   9.963  27.778  0.00  0.00    -0.279 N 
ATOM     29  H   UNL     1      -2.466  10.722  28.365  0.00  0.00    +0.152 HD
BRANCH  26  30
ATOM     30  O   UNL     1      -2.315   8.641  29.722  0.00  0.00    -0.444 OA
BRANCH  30  31
ATOM     31  C   UNL     1      -3.687   8.979  29.941  0.00  0.00    +0.292 C 
BRANCH  31  33
ATOM     32  N   UNL     1      -4.941  10.011  31.809  0.00  0.00    -0.131 NA
ATOM     33  C   UNL     1      -3.808   9.954  31.041  0.00  0.00    +0.120 A 
ATOM     34  C   UNL     1      -2.921  10.914  31.475  0.00  0.00    +0.137 A 
ATOM     35  N   UNL     1      -3.580  11.526  32.498  0.00  0.00    -0.250 N 
ATOM     36  N   UNL     1      -4.789  10.977  32.702  0.00  0.00    -0.065 NA
BRANCH  35  37
ATOM     37  C   UNL     1      -3.153  12.665  33.283  0.00  0.00    +0.160 C 
BRANCH  37  38
ATOM     38  C   UNL     1      -2.074  13.482  32.565  0.00  0.00    +0.107 C 
BRANCH  38  39
ATOM     39  N   UNL     1      -2.511  14.851  32.237  0.00  0.00    -0.301 NA
ATOM     40  C   UNL     1      -3.470  14.898  31.130  0.00  0.00    +0.084 C 
ATOM     41  C   UNL     1      -4.060  16.287  31.266  0.00  0.00    +0.017 C 
ATOM     42  C   UNL     1      -4.166  16.489  32.766  0.00  0.00    +0.017 C 
ATOM     43  C   UNL     1      -3.182  15.496  33.376  0.00  0.00    +0.084 C 
ENDBRANCH  38  39
ENDBRANCH  37  38
ENDBRANCH  35  37
ENDBRANCH  31  33
ENDBRANCH  30  31
ENDBRANCH  26  30
ENDBRANCH  25  28
ENDBRANCH   1  25
TORSDOF 16
