REMARK VINA RESULT:    -4.803      4.543      7.044
REMARK INTER + INTRA:         -11.227
REMARK INTER:                  -8.461
REMARK INTRA:                  -2.766
REMARK UNBOUND:                -2.913
REMARK  Name = lig_assembled_93.pdb
REMARK  16 active torsions:
REMARK  status: ('A' for Active; 'I' for Inactive)
REMARK    1  A    between atoms: _2  and  _9
REMARK    2  A    between atoms: _4  and  _18
REMARK    3  A    between atoms: _6  and  _7
REMARK    4  A    between atoms: _6  and  _18
REMARK    5  A    between atoms: _14  and  _34
REMARK    6  A    between atoms: _16  and  _22
REMARK    7  A    between atoms: _17  and  _21
REMARK    8  A    between atoms: _21  and  _22
REMARK    9  A    between atoms: _24  and  _25
REMARK   10  A    between atoms: _26  and  _27
REMARK   11  A    between atoms: _28  and  _30
REMARK   12  A    between atoms: _30  and  _31
REMARK   13  A    between atoms: _30  and  _32
REMARK   14  A    between atoms: _32  and  _33
REMARK   15  A    between atoms: _32  and  _34
REMARK   16  A    between atoms: _35  and  _37
REMARK                            x       y       z     vdW  Elec       q    Type
REMARK                         _______ _______ _______ _____ _____    ______ ____
ROOT
ATOM      1  C   UNL     1      -2.322   9.801  27.042  0.00  0.00    +0.163 C 
ENDROOT
BRANCH   1   2
ATOM      2  O   UNL     1      -1.110   9.939  26.283  0.00  0.00    -0.388 OA
ATOM      3  H   UNL     1      -0.558  10.616  26.680  0.00  0.00    +0.210 HD
ENDBRANCH   1   2
BRANCH   1   4
ATOM      4  C   UNL     1      -2.028   9.124  28.377  0.00  0.00    +0.141 C 
BRANCH   4   7
ATOM      5  C   UNL     1      -3.490   9.443  30.343  0.00  0.00    +0.401 C 
ATOM      6  O   UNL     1      -4.022   8.335  30.245  0.00  0.00    -0.226 OA
ATOM      7  N   UNL     1      -2.552   9.897  29.510  0.00  0.00    -0.279 N 
ATOM      8  H   UNL     1      -2.182  10.824  29.666  0.00  0.00    +0.152 HD
BRANCH   5   9
ATOM      9  O   UNL     1      -3.889  10.314  31.405  0.00  0.00    -0.444 OA
BRANCH   9  10
ATOM     10  C   UNL     1      -2.818  11.210  31.716  0.00  0.00    +0.292 C 
BRANCH  10  12
ATOM     11  N   UNL     1      -4.292  12.636  33.089  0.00  0.00    -0.131 NA
ATOM     12  C   UNL     1      -3.352  12.526  32.114  0.00  0.00    +0.121 A 
ATOM     13  C   UNL     1      -3.046  13.784  31.648  0.00  0.00    +0.143 A 
ATOM     14  N   UNL     1      -3.824  14.655  32.391  0.00  0.00    -0.219 N 
ATOM     15  N   UNL     1      -4.573  13.921  33.243  0.00  0.00    -0.060 NA
BRANCH  14  16
ATOM     16  C   UNL     1      -3.861  16.084  32.324  0.00  0.00    +0.080 A 
ATOM     17  C   UNL     1      -3.047  16.803  33.233  0.00  0.00    +0.029 A 
ATOM     18  C   UNL     1      -3.028  18.200  33.257  0.00  0.00    +0.002 A 
ATOM     19  C   UNL     1      -3.817  18.919  32.375  0.00  0.00    +0.001 A 
ATOM     20  C   UNL     1      -4.622  18.238  31.465  0.00  0.00    +0.016 A 
ATOM     21  C   UNL     1      -4.654  16.828  31.425  0.00  0.00    +0.039 A 
ATOM     22  I   UNL     1      -5.965  16.094  29.936  0.00  0.00    -0.042 I 
ENDBRANCH  14  16
ENDBRANCH  10  12
ENDBRANCH   9  10
ENDBRANCH   5   9
ENDBRANCH   4   7
ENDBRANCH   1   4
BRANCH   1  23
ATOM     23  C   UNL     1      -3.366   8.977  26.268  0.00  0.00    +0.175 C 
BRANCH  23  24
ATOM     24  C   UNL     1      -4.132   9.829  25.246  0.00  0.00    +0.176 C 
ATOM     25  O   UNL     1      -3.218  10.160  24.164  0.00  0.00    -0.332 OA
ATOM     26  C   UNL     1      -3.808  10.887  23.036  0.00  0.00    +0.277 C 
ATOM     27  C   UNL     1      -4.518  12.171  23.532  0.00  0.00    +0.110 C 
ATOM     28  C   UNL     1      -5.477  11.875  24.704  0.00  0.00    +0.143 C 
ATOM     29  C   UNL     1      -4.761  11.113  25.820  0.00  0.00    +0.133 C 
BRANCH  29  30
ATOM     30  N   UNL     1      -5.706  10.760  26.891  0.00  0.00    -0.308 N 
ATOM     31  H   UNL     1      -6.387  10.039  26.701  0.00  0.00    +0.149 HD
ATOM     32  C   UNL     1      -5.721  11.331  28.099  0.00  0.00    +0.210 C 
ATOM     33  C   UNL     1      -4.687  12.445  28.348  0.00  0.00    +0.109 C 
ATOM     34  O   UNL     1      -6.515  11.006  28.982  0.00  0.00    -0.276 OA
ENDBRANCH  29  30
BRANCH  26  35
ATOM     35  C   UNL     1      -4.818   9.999  22.280  0.00  0.00    +0.414 C 
ATOM     36  O   UNL     1      -5.959  10.404  22.062  0.00  0.00    -0.240 OA
ATOM     37  O   UNL     1      -4.492   8.878  21.888  0.00  0.00    -0.240 OA
ENDBRANCH  26  35
BRANCH  28  38
ATOM     38  O   UNL     1      -5.992  13.100  25.226  0.00  0.00    -0.390 OA
ATOM     39  H   UNL     1      -5.318  13.531  25.757  0.00  0.00    +0.210 HD
ENDBRANCH  28  38
BRANCH  26  40
ATOM     40  O   UNL     1      -2.734  11.275  22.141  0.00  0.00    -0.343 OA
ATOM     41  C   UNL     1      -3.099  12.251  21.133  0.00  0.00    +0.198 C 
ENDBRANCH  26  40
ENDBRANCH  23  24
BRANCH  23  42
ATOM     42  O   UNL     1      -4.287   8.354  27.185  0.00  0.00    -0.387 OA
ATOM     43  H   UNL     1      -4.723   7.618  26.750  0.00  0.00    +0.210 HD
ENDBRANCH  23  42
ENDBRANCH   1  23
TORSDOF 14
