REMARK VINA RESULT:    -5.753      1.563      2.046
REMARK INTER + INTRA:         -13.639
REMARK INTER:                 -11.300
REMARK INTRA:                  -2.339
REMARK UNBOUND:                -2.840
REMARK  Name = lig_assembled_77.pdb
REMARK  19 active torsions:
REMARK  status: ('A' for Active; 'I' for Inactive)
REMARK    1  A    between atoms: _2  and  _10
REMARK    2  A    between atoms: _3  and  _17
REMARK    3  A    between atoms: _5  and  _27
REMARK    4  A    between atoms: _7  and  _8
REMARK    5  A    between atoms: _7  and  _27
REMARK    6  A    between atoms: _13  and  _47
REMARK    7  A    between atoms: _14  and  _47
REMARK    8  A    between atoms: _23  and  _43
REMARK    9  A    between atoms: _25  and  _31
REMARK   10  A    between atoms: _26  and  _30
REMARK   11  A    between atoms: _30  and  _31
REMARK   12  A    between atoms: _33  and  _34
REMARK   13  A    between atoms: _35  and  _36
REMARK   14  A    between atoms: _37  and  _39
REMARK   15  A    between atoms: _39  and  _40
REMARK   16  A    between atoms: _39  and  _41
REMARK   17  A    between atoms: _41  and  _42
REMARK   18  A    between atoms: _41  and  _43
REMARK   19  A    between atoms: _44  and  _46
REMARK                            x       y       z     vdW  Elec       q    Type
REMARK                         _______ _______ _______ _____ _____    ______ ____
ROOT
ATOM      1  C   UNL     1      -4.952  12.440  21.327  0.00  0.00    +0.401 C 
ATOM      2  O   UNL     1      -3.995  11.740  20.989  0.00  0.00    -0.226 OA
ATOM      3  N   UNL     1      -4.903  13.348  22.302  0.00  0.00    -0.279 N 
ATOM      4  H   UNL     1      -5.739  13.881  22.499  0.00  0.00    +0.152 HD
ENDROOT
BRANCH   3   5
ATOM      5  C   UNL     1      -3.704  13.618  23.105  0.00  0.00    +0.141 C 
BRANCH   5   6
ATOM      6  C   UNL     1      -3.385  12.467  24.054  0.00  0.00    +0.163 C 
BRANCH   6   7
ATOM      7  O   UNL     1      -1.972  12.417  24.308  0.00  0.00    -0.388 OA
ATOM      8  H   UNL     1      -1.762  12.974  25.062  0.00  0.00    +0.210 HD
ENDBRANCH   6   7
BRANCH   6   9
ATOM      9  C   UNL     1      -4.173  12.647  25.363  0.00  0.00    +0.175 C 
BRANCH   9  10
ATOM     10  C   UNL     1      -3.833  11.564  26.397  0.00  0.00    +0.176 C 
ATOM     11  O   UNL     1      -3.706  10.298  25.692  0.00  0.00    -0.332 OA
ATOM     12  C   UNL     1      -3.276   9.158  26.508  0.00  0.00    +0.277 C 
ATOM     13  C   UNL     1      -4.211   8.985  27.730  0.00  0.00    +0.110 C 
ATOM     14  C   UNL     1      -4.403  10.313  28.493  0.00  0.00    +0.143 C 
ATOM     15  C   UNL     1      -4.846  11.430  27.548  0.00  0.00    +0.133 C 
BRANCH  15  16
ATOM     16  N   UNL     1      -4.941  12.709  28.270  0.00  0.00    -0.308 N 
ATOM     17  H   UNL     1      -4.083  13.134  28.590  0.00  0.00    +0.149 HD
ATOM     18  C   UNL     1      -6.087  13.343  28.530  0.00  0.00    +0.210 C 
ATOM     19  C   UNL     1      -7.380  12.656  28.052  0.00  0.00    +0.109 C 
ATOM     20  O   UNL     1      -6.135  14.421  29.125  0.00  0.00    -0.276 OA
ENDBRANCH  15  16
BRANCH  12  21
ATOM     21  C   UNL     1      -1.824   9.349  26.993  0.00  0.00    +0.414 C 
ATOM     22  O   UNL     1      -1.006   9.936  26.286  0.00  0.00    -0.240 OA
ATOM     23  O   UNL     1      -1.471   8.917  28.091  0.00  0.00    -0.240 OA
ENDBRANCH  12  21
BRANCH  14  24
ATOM     24  O   UNL     1      -5.385  10.144  29.516  0.00  0.00    -0.390 OA
ATOM     25  H   UNL     1      -4.982   9.730  30.282  0.00  0.00    +0.210 HD
ENDBRANCH  14  24
BRANCH  12  26
ATOM     26  O   UNL     1      -3.365   7.963  25.691  0.00  0.00    -0.343 OA
ATOM     27  C   UNL     1      -4.683   7.360  25.629  0.00  0.00    +0.198 C 
ENDBRANCH  12  26
ENDBRANCH   9  10
BRANCH   9  28
ATOM     28  O   UNL     1      -5.590  12.649  25.094  0.00  0.00    -0.387 OA
ATOM     29  H   UNL     1      -5.865  11.772  24.819  0.00  0.00    +0.210 HD
ENDBRANCH   9  28
ENDBRANCH   6   9
ENDBRANCH   5   6
ENDBRANCH   3   5
BRANCH   1  30
ATOM     30  O   UNL     1      -6.198  12.289  20.642  0.00  0.00    -0.444 OA
BRANCH  30  31
ATOM     31  C   UNL     1      -6.139  11.143  19.789  0.00  0.00    +0.292 C 
BRANCH  31  33
ATOM     32  N   UNL     1      -7.056  12.073  17.689  0.00  0.00    -0.131 NA
ATOM     33  C   UNL     1      -5.999  11.556  18.379  0.00  0.00    +0.121 A 
ATOM     34  C   UNL     1      -4.898  11.517  17.554  0.00  0.00    +0.143 A 
ATOM     35  N   UNL     1      -5.334  12.037  16.356  0.00  0.00    -0.220 N 
ATOM     36  N   UNL     1      -6.648  12.354  16.459  0.00  0.00    -0.060 NA
BRANCH  35  37
ATOM     37  C   UNL     1      -4.590  12.301  15.176  0.00  0.00    +0.067 A 
ATOM     38  C   UNL     1      -4.880  13.416  14.375  0.00  0.00    +0.030 A 
ATOM     39  C   UNL     1      -4.220  13.594  13.155  0.00  0.00    +0.029 A 
ATOM     40  C   UNL     1      -3.269  12.660  12.741  0.00  0.00    +0.094 A 
ATOM     41  C   UNL     1      -2.906  11.596  13.572  0.00  0.00    +0.029 A 
ATOM     42  C   UNL     1      -3.576  11.410  14.784  0.00  0.00    +0.030 A 
BRANCH  40  43
ATOM     43  S   UNL     1      -2.479  12.851  11.155  0.00  0.00    +0.025 S 
ATOM     44  O   UNL     1      -2.049  11.521  10.755  0.00  0.00    -0.164 OA
ATOM     45  O   UNL     1      -3.376  13.621  10.314  0.00  0.00    -0.164 OA
BRANCH  43  46
ATOM     46  C   UNL     1      -1.010  13.836  11.357  0.00  0.00    +0.094 A 
ATOM     47  C   UNL     1      -0.729  14.468  12.568  0.00  0.00    +0.029 A 
ATOM     48  C   UNL     1       0.403  15.285  12.673  0.00  0.00    +0.024 A 
ATOM     49  C   UNL     1       1.284  15.442  11.595  0.00  0.00    +0.025 A 
ATOM     50  C   UNL     1       0.969  14.825  10.379  0.00  0.00    +0.024 A 
ATOM     51  C   UNL     1      -0.158  14.008  10.261  0.00  0.00    +0.029 A 
BRANCH  49  52
ATOM     52  N   UNL     1       2.309  16.389  11.656  0.00  0.00    -0.358 N 
ATOM     53  H   UNL     1       2.383  16.989  10.840  0.00  0.00    +0.142 HD
ATOM     54  H   UNL     1       2.348  16.910  12.526  0.00  0.00    +0.142 HD
ENDBRANCH  49  52
ENDBRANCH  43  46
ENDBRANCH  40  43
ENDBRANCH  35  37
ENDBRANCH  31  33
ENDBRANCH  30  31
ENDBRANCH   1  30
TORSDOF 17
