REMARK VINA RESULT:    -5.381      4.664      9.450
REMARK INTER + INTRA:         -12.303
REMARK INTER:                  -9.897
REMARK INTRA:                  -2.406
REMARK UNBOUND:                -2.989
REMARK  Name = lig_assembled_51.pdb
REMARK  16 active torsions:
REMARK  status: ('A' for Active; 'I' for Inactive)
REMARK    1  A    between atoms: _2  and  _9
REMARK    2  A    between atoms: _4  and  _22
REMARK    3  A    between atoms: _6  and  _7
REMARK    4  A    between atoms: _6  and  _22
REMARK    5  A    between atoms: _18  and  _38
REMARK    6  A    between atoms: _20  and  _26
REMARK    7  A    between atoms: _21  and  _25
REMARK    8  A    between atoms: _25  and  _26
REMARK    9  A    between atoms: _28  and  _29
REMARK   10  A    between atoms: _30  and  _31
REMARK   11  A    between atoms: _32  and  _34
REMARK   12  A    between atoms: _34  and  _35
REMARK   13  A    between atoms: _34  and  _36
REMARK   14  A    between atoms: _36  and  _37
REMARK   15  A    between atoms: _36  and  _38
REMARK   16  A    between atoms: _39  and  _41
REMARK                            x       y       z     vdW  Elec       q    Type
REMARK                         _______ _______ _______ _____ _____    ______ ____
ROOT
ATOM      1  C   UNL     1      -3.255  11.756  25.144  0.00  0.00    +0.163 C 
ENDROOT
BRANCH   1   2
ATOM      2  O   UNL     1      -2.182  10.803  25.061  0.00  0.00    -0.388 OA
ATOM      3  H   UNL     1      -1.845  10.622  25.942  0.00  0.00    +0.210 HD
ENDBRANCH   1   2
BRANCH   1   4
ATOM      4  C   UNL     1      -2.896  13.015  24.363  0.00  0.00    +0.141 C 
BRANCH   4   7
ATOM      5  C   UNL     1      -4.925  13.887  23.256  0.00  0.00    +0.401 C 
ATOM      6  O   UNL     1      -5.375  14.407  24.280  0.00  0.00    -0.226 OA
ATOM      7  N   UNL     1      -3.777  13.212  23.205  0.00  0.00    -0.279 N 
ATOM      8  H   UNL     1      -3.496  12.812  22.321  0.00  0.00    +0.152 HD
BRANCH   5   9
ATOM      9  O   UNL     1      -5.666  13.998  22.038  0.00  0.00    -0.444 OA
BRANCH   9  10
ATOM     10  C   UNL     1      -6.376  12.780  21.798  0.00  0.00    +0.292 C 
BRANCH  10  12
ATOM     11  N   UNL     1      -7.510  12.708  19.599  0.00  0.00    -0.131 NA
ATOM     12  C   UNL     1      -6.397  12.472  20.356  0.00  0.00    +0.120 A 
ATOM     13  C   UNL     1      -5.413  11.941  19.553  0.00  0.00    +0.137 A 
ATOM     14  N   UNL     1      -5.988  11.871  18.315  0.00  0.00    -0.245 N 
ATOM     15  N   UNL     1      -7.250  12.337  18.353  0.00  0.00    -0.065 NA
BRANCH  14  16
ATOM     16  C   UNL     1      -5.391  11.366  17.076  0.00  0.00    +0.066 C 
ATOM     17  C   UNL     1      -6.465  11.299  15.955  0.00  0.00    +0.034 C 
ATOM     18  C   UNL     1      -5.847  10.815  14.632  0.00  0.00    -0.008 C 
ATOM     19  C   UNL     1      -4.728  11.782  14.212  0.00  0.00    +0.007 C 
ATOM     20  C   UNL     1      -3.634  11.826  15.291  0.00  0.00    -0.008 C 
ATOM     21  C   UNL     1      -3.056  10.416  15.487  0.00  0.00    +0.007 C 
ATOM     22  C   UNL     1      -4.169   9.448  15.916  0.00  0.00    -0.008 C 
ATOM     23  C   UNL     1      -5.257   9.411  14.831  0.00  0.00    +0.007 C 
ATOM     24  C   UNL     1      -4.247  12.312  16.615  0.00  0.00    +0.034 C 
ATOM     25  C   UNL     1      -4.787   9.938  17.237  0.00  0.00    +0.034 C 
ENDBRANCH  14  16
ENDBRANCH  10  12
ENDBRANCH   9  10
ENDBRANCH   5   9
ENDBRANCH   4   7
ENDBRANCH   1   4
BRANCH   1  26
ATOM     26  C   UNL     1      -3.550  12.125  26.608  0.00  0.00    +0.175 C 
BRANCH  26  27
ATOM     27  C   UNL     1      -3.351  10.933  27.556  0.00  0.00    +0.176 C 
ATOM     28  O   UNL     1      -3.985   9.772  26.954  0.00  0.00    -0.332 OA
ATOM     29  C   UNL     1      -3.805   8.507  27.673  0.00  0.00    +0.277 C 
ATOM     30  C   UNL     1      -4.266   8.651  29.144  0.00  0.00    +0.110 C 
ATOM     31  C   UNL     1      -3.642   9.891  29.818  0.00  0.00    +0.143 C 
ATOM     32  C   UNL     1      -3.886  11.149  28.984  0.00  0.00    +0.133 C 
BRANCH  32  33
ATOM     33  N   UNL     1      -3.214  12.308  29.591  0.00  0.00    -0.308 N 
ATOM     34  H   UNL     1      -2.203  12.308  29.615  0.00  0.00    +0.149 HD
ATOM     35  C   UNL     1      -3.850  13.360  30.113  0.00  0.00    +0.210 C 
ATOM     36  C   UNL     1      -5.390  13.318  30.084  0.00  0.00    +0.109 C 
ATOM     37  O   UNL     1      -3.260  14.324  30.601  0.00  0.00    -0.276 OA
ENDBRANCH  32  33
BRANCH  29  38
ATOM     38  C   UNL     1      -2.328   8.062  27.636  0.00  0.00    +0.414 C 
ATOM     39  O   UNL     1      -1.627   8.321  26.659  0.00  0.00    -0.240 OA
ATOM     40  O   UNL     1      -1.838   7.446  28.583  0.00  0.00    -0.240 OA
ENDBRANCH  29  38
BRANCH  31  41
ATOM     41  O   UNL     1      -4.208  10.070  31.116  0.00  0.00    -0.390 OA
ATOM     42  H   UNL     1      -3.523  10.345  31.730  0.00  0.00    +0.210 HD
ENDBRANCH  31  41
BRANCH  29  43
ATOM     43  O   UNL     1      -4.633   7.503  27.030  0.00  0.00    -0.343 OA
ATOM     44  C   UNL     1      -4.989   7.792  25.655  0.00  0.00    +0.198 C 
ENDBRANCH  29  43
ENDBRANCH  26  27
BRANCH  26  45
ATOM     45  O   UNL     1      -4.892  12.638  26.730  0.00  0.00    -0.387 OA
ATOM     46  H   UNL     1      -5.463  12.194  26.098  0.00  0.00    +0.210 HD
ENDBRANCH  26  45
ENDBRANCH   1  26
TORSDOF 14
