REMARK VINA RESULT:    -4.416     12.889     16.083
REMARK INTER + INTRA:         -12.045
REMARK INTER:                  -7.506
REMARK INTRA:                  -4.539
REMARK UNBOUND:                -3.885
REMARK  Name = lig_assembled_79.pdb
REMARK  20 active torsions:
REMARK  status: ('A' for Active; 'I' for Inactive)
REMARK    1  A    between atoms: _2  and  _10
REMARK    2  A    between atoms: _5  and  _26
REMARK    3  A    between atoms: _7  and  _8
REMARK    4  A    between atoms: _7  and  _26
REMARK    5  A    between atoms: _10  and  _11
REMARK    6  A    between atoms: _10  and  _12
REMARK    7  A    between atoms: _10  and  _13
REMARK    8  A    between atoms: _13  and  _14
REMARK    9  A    between atoms: _22  and  _42
REMARK   10  A    between atoms: _24  and  _30
REMARK   11  A    between atoms: _25  and  _29
REMARK   12  A    between atoms: _29  and  _30
REMARK   13  A    between atoms: _32  and  _33
REMARK   14  A    between atoms: _34  and  _35
REMARK   15  A    between atoms: _36  and  _38
REMARK   16  A    between atoms: _38  and  _39
REMARK   17  A    between atoms: _38  and  _40
REMARK   18  A    between atoms: _40  and  _41
REMARK   19  A    between atoms: _40  and  _42
REMARK   20  A    between atoms: _43  and  _45
REMARK                            x       y       z     vdW  Elec       q    Type
REMARK                         _______ _______ _______ _____ _____    ______ ____
ROOT
ATOM      1  C   UNL     1      -5.253  10.352   9.338  0.00  0.00    +0.401 C 
ATOM      2  O   UNL     1      -4.397   9.582   8.895  0.00  0.00    -0.226 OA
ATOM      3  N   UNL     1      -6.346   9.956   9.990  0.00  0.00    -0.279 N 
ATOM      4  H   UNL     1      -6.985  10.663  10.324  0.00  0.00    +0.152 HD
ENDROOT
BRANCH   3   5
ATOM      5  C   UNL     1      -6.674   8.548  10.250  0.00  0.00    +0.141 C 
BRANCH   5   6
ATOM      6  C   UNL     1      -6.082   8.061  11.569  0.00  0.00    +0.163 C 
BRANCH   6   7
ATOM      7  O   UNL     1      -4.721   7.645  11.372  0.00  0.00    -0.388 OA
ATOM      8  H   UNL     1      -4.685   6.688  11.303  0.00  0.00    +0.210 HD
ENDBRANCH   6   7
BRANCH   6   9
ATOM      9  C   UNL     1      -6.168   9.184  12.617  0.00  0.00    +0.175 C 
BRANCH   9  10
ATOM     10  C   UNL     1      -4.793   9.532  13.205  0.00  0.00    +0.176 C 
ATOM     11  O   UNL     1      -4.453   8.511  14.183  0.00  0.00    -0.332 OA
ATOM     12  C   UNL     1      -3.118   8.621  14.777  0.00  0.00    +0.277 C 
ATOM     13  C   UNL     1      -2.915  10.026  15.395  0.00  0.00    +0.110 C 
ATOM     14  C   UNL     1      -3.293  11.145  14.403  0.00  0.00    +0.143 C 
ATOM     15  C   UNL     1      -4.700  10.930  13.844  0.00  0.00    +0.133 C 
BRANCH  15  16
ATOM     16  N   UNL     1      -5.016  11.953  12.835  0.00  0.00    -0.308 N 
ATOM     17  H   UNL     1      -4.443  11.988  12.003  0.00  0.00    +0.149 HD
ATOM     18  C   UNL     1      -6.009  12.839  12.946  0.00  0.00    +0.210 C 
ATOM     19  C   UNL     1      -6.847  12.777  14.237  0.00  0.00    +0.109 C 
ATOM     20  O   UNL     1      -6.260  13.676  12.078  0.00  0.00    -0.276 OA
ENDBRANCH  15  16
BRANCH  12  21
ATOM     21  C   UNL     1      -2.025   8.361  13.719  0.00  0.00    +0.414 C 
ATOM     22  O   UNL     1      -0.973   8.999  13.744  0.00  0.00    -0.240 OA
ATOM     23  O   UNL     1      -2.195   7.513  12.842  0.00  0.00    -0.240 OA
ENDBRANCH  12  21
BRANCH  14  24
ATOM     24  O   UNL     1      -3.236  12.412  15.060  0.00  0.00    -0.390 OA
ATOM     25  H   UNL     1      -2.325  12.617  15.282  0.00  0.00    +0.210 HD
ENDBRANCH  14  24
BRANCH  12  26
ATOM     26  O   UNL     1      -3.015   7.636  15.837  0.00  0.00    -0.343 OA
ATOM     27  C   UNL     1      -4.251   7.369  16.547  0.00  0.00    +0.198 C 
ENDBRANCH  12  26
ENDBRANCH   9  10
BRANCH   9  28
ATOM     28  O   UNL     1      -7.079   8.811  13.670  0.00  0.00    -0.387 OA
ATOM     29  H   UNL     1      -7.891   9.316  13.585  0.00  0.00    +0.210 HD
ENDBRANCH   9  28
ENDBRANCH   6   9
ENDBRANCH   5   6
ENDBRANCH   3   5
BRANCH   1  30
ATOM     30  O   UNL     1      -5.081  11.760   9.156  0.00  0.00    -0.444 OA
BRANCH  30  31
ATOM     31  C   UNL     1      -3.686  12.063   9.068  0.00  0.00    +0.292 C 
BRANCH  31  33
ATOM     32  N   UNL     1      -2.664  12.578  11.253  0.00  0.00    -0.131 NA
ATOM     33  C   UNL     1      -3.305  13.012  10.130  0.00  0.00    +0.120 A 
ATOM     34  C   UNL     1      -3.496  14.373  10.216  0.00  0.00    +0.138 A 
ATOM     35  N   UNL     1      -2.868  14.735  11.376  0.00  0.00    -0.238 N 
ATOM     36  N   UNL     1      -2.441  13.626  12.029  0.00  0.00    -0.064 NA
BRANCH  35  37
ATOM     37  C   UNL     1      -2.779  16.054  12.067  0.00  0.00    +0.122 C 
ATOM     38  C   UNL     1      -1.944  15.823  13.349  0.00  0.00    +0.044 C 
ATOM     39  C   UNL     1      -4.242  16.472  12.316  0.00  0.00    +0.044 C 
BRANCH  37  40
ATOM     40  C   UNL     1      -2.058  17.136  11.237  0.00  0.00    +0.192 C 
ATOM     41  O   UNL     1      -2.710  17.980  10.614  0.00  0.00    -0.289 OA
BRANCH  40  42
ATOM     42  C   UNL     1      -0.572  17.208  11.127  0.00  0.00    +0.045 A 
ATOM     43  C   UNL     1       0.081  18.415  11.347  0.00  0.00    +0.095 A 
ATOM     44  N   UNL     1       1.420  18.254  11.166  0.00  0.00    -0.360 N 
ATOM     45  H   UNL     1       2.116  18.982  11.256  0.00  0.00    +0.165 HD
ATOM     46  C   UNL     1       1.694  16.953  10.828  0.00  0.00    +0.047 A 
ATOM     47  C   UNL     1       2.933  16.361  10.545  0.00  0.00    +0.026 A 
ATOM     48  C   UNL     1       2.957  15.006  10.217  0.00  0.00    +0.002 A 
ATOM     49  C   UNL     1       1.783  14.272  10.178  0.00  0.00    +0.001 A 
ATOM     50  C   UNL     1       0.555  14.881  10.465  0.00  0.00    +0.011 A 
ATOM     51  C   UNL     1       0.477  16.258  10.799  0.00  0.00    +0.010 A 
ENDBRANCH  40  42
ENDBRANCH  37  40
ENDBRANCH  35  37
ENDBRANCH  31  33
ENDBRANCH  30  31
ENDBRANCH   1  30
TORSDOF 16
