REMARK VINA RESULT:    -4.450      5.062      7.505
REMARK INTER + INTRA:         -12.696
REMARK INTER:                  -7.872
REMARK INTRA:                  -4.824
REMARK UNBOUND:                -4.083
REMARK  Name = lig_assembled_83.pdb
REMARK  20 active torsions:
REMARK  status: ('A' for Active; 'I' for Inactive)
REMARK    1  A    between atoms: _2  and  _12
REMARK    2  A    between atoms: _3  and  _14
REMARK    3  A    between atoms: _7  and  _24
REMARK    4  A    between atoms: _9  and  _10
REMARK    5  A    between atoms: _9  and  _24
REMARK    6  A    between atoms: _12  and  _13
REMARK    7  A    between atoms: _13  and  _14
REMARK    8  A    between atoms: _13  and  _18
REMARK    9  A    between atoms: _20  and  _40
REMARK   10  A    between atoms: _22  and  _28
REMARK   11  A    between atoms: _23  and  _27
REMARK   12  A    between atoms: _27  and  _28
REMARK   13  A    between atoms: _30  and  _31
REMARK   14  A    between atoms: _32  and  _33
REMARK   15  A    between atoms: _34  and  _36
REMARK   16  A    between atoms: _36  and  _37
REMARK   17  A    between atoms: _36  and  _38
REMARK   18  A    between atoms: _38  and  _39
REMARK   19  A    between atoms: _38  and  _40
REMARK   20  A    between atoms: _41  and  _43
REMARK                            x       y       z     vdW  Elec       q    Type
REMARK                         _______ _______ _______ _____ _____    ______ ____
ROOT
ATOM      1  C   UNL     1      -2.312   8.221  29.156  0.00  0.00    +0.141 C 
ENDROOT
BRANCH   1   4
ATOM      2  C   UNL     1      -2.736   6.846  27.147  0.00  0.00    +0.401 C 
ATOM      3  O   UNL     1      -1.860   7.393  26.473  0.00  0.00    -0.226 OA
ATOM      4  N   UNL     1      -3.020   7.174  28.408  0.00  0.00    -0.279 N 
ATOM      5  H   UNL     1      -3.763   6.674  28.876  0.00  0.00    +0.152 HD
BRANCH   2   6
ATOM      6  O   UNL     1      -3.511   5.797  26.560  0.00  0.00    -0.444 OA
BRANCH   6   7
ATOM      7  C   UNL     1      -3.250   5.739  25.156  0.00  0.00    +0.292 C 
BRANCH   7   9
ATOM      8  N   UNL     1      -5.536   6.654  24.841  0.00  0.00    -0.131 NA
ATOM      9  C   UNL     1      -4.238   6.541  24.413  0.00  0.00    +0.120 A 
ATOM     10  C   UNL     1      -4.085   7.269  23.255  0.00  0.00    +0.137 A 
ATOM     11  N   UNL     1      -5.316   7.811  23.043  0.00  0.00    -0.249 N 
ATOM     12  N   UNL     1      -6.191   7.432  23.988  0.00  0.00    -0.065 NA
BRANCH  11  13
ATOM     13  C   UNL     1      -5.734   8.660  21.948  0.00  0.00    +0.178 C 
BRANCH  13  14
ATOM     14  C   UNL     1      -5.537  10.144  22.268  0.00  0.00    +0.156 C 
BRANCH  14  15
ATOM     15  O   UNL     1      -5.754  10.374  23.664  0.00  0.00    -0.388 OA
ATOM     16  H   UNL     1      -6.652  10.075  23.913  0.00  0.00    +0.210 HD
ENDBRANCH  14  15
BRANCH  14  17
ATOM     17  C   UNL     1      -4.124  10.598  21.866  0.00  0.00    +0.162 C 
BRANCH  17  18
ATOM     18  N   UNL     1      -3.855  11.978  22.239  0.00  0.00    -0.269 N 
ATOM     19  C   UNL     1      -4.227  13.057  21.470  0.00  0.00    +0.113 A 
ATOM     20  C   UNL     1      -3.824  14.168  22.173  0.00  0.00    +0.137 A 
ATOM     21  N   UNL     1      -3.192  13.807  23.331  0.00  0.00    -0.172 NA
ATOM     22  C   UNL     1      -3.228  12.487  23.351  0.00  0.00    +0.450 A 
ATOM     23  N   UNL     1      -2.668  11.711  24.435  0.00  0.00    +0.120 N 
ATOM     24  O   UNL     1      -2.754  10.475  24.362  0.00  0.00    +0.045 OA
ATOM     25  O   UNL     1      -2.128  12.330  25.359  0.00  0.00    -0.573 OA
ENDBRANCH  17  18
ENDBRANCH  14  17
ENDBRANCH  13  14
ENDBRANCH  11  13
ENDBRANCH   7   9
ENDBRANCH   6   7
ENDBRANCH   2   6
ENDBRANCH   1   4
BRANCH   1  26
ATOM     26  C   UNL     1      -3.261   9.308  29.649  0.00  0.00    +0.163 C 
BRANCH  26  27
ATOM     27  O   UNL     1      -3.011   9.587  31.036  0.00  0.00    -0.388 OA
ATOM     28  H   UNL     1      -3.831   9.842  31.466  0.00  0.00    +0.210 HD
ENDBRANCH  26  27
BRANCH  26  29
ATOM     29  C   UNL     1      -3.083  10.573  28.792  0.00  0.00    +0.175 C 
BRANCH  29  30
ATOM     30  C   UNL     1      -4.402  11.340  28.613  0.00  0.00    +0.176 C 
ATOM     31  O   UNL     1      -4.582  11.595  27.193  0.00  0.00    -0.332 OA
ATOM     32  C   UNL     1      -5.849  12.230  26.819  0.00  0.00    +0.277 C 
ATOM     33  C   UNL     1      -6.052  13.542  27.615  0.00  0.00    +0.110 C 
ATOM     34  C   UNL     1      -5.840  13.328  29.129  0.00  0.00    +0.143 C 
ATOM     35  C   UNL     1      -4.493  12.658  29.405  0.00  0.00    +0.133 C 
BRANCH  35  36
ATOM     36  N   UNL     1      -4.340  12.380  30.841  0.00  0.00    -0.308 N 
ATOM     37  H   UNL     1      -4.923  11.662  31.248  0.00  0.00    +0.149 HD
ATOM     38  C   UNL     1      -3.482  13.016  31.644  0.00  0.00    +0.210 C 
ATOM     39  C   UNL     1      -2.627  14.123  31.000  0.00  0.00    +0.109 C 
ATOM     40  O   UNL     1      -3.365  12.752  32.841  0.00  0.00    -0.276 OA
ENDBRANCH  35  36
BRANCH  32  41
ATOM     41  C   UNL     1      -7.036  11.279  27.079  0.00  0.00    +0.414 C 
ATOM     42  O   UNL     1      -6.855  10.064  27.134  0.00  0.00    -0.240 OA
ATOM     43  O   UNL     1      -8.172  11.728  27.233  0.00  0.00    -0.240 OA
ENDBRANCH  32  41
BRANCH  32  44
ATOM     44  O   UNL     1      -5.786  12.558  25.407  0.00  0.00    -0.343 OA
ATOM     45  C   UNL     1      -6.292  13.872  25.060  0.00  0.00    +0.198 C 
ENDBRANCH  32  44
BRANCH  34  46
ATOM     46  O   UNL     1      -5.887  14.585  29.805  0.00  0.00    -0.390 OA
ATOM     47  H   UNL     1      -5.032  14.769  30.201  0.00  0.00    +0.210 HD
ENDBRANCH  34  46
ENDBRANCH  29  30
BRANCH  29  48
ATOM     48  O   UNL     1      -2.531  10.228  27.506  0.00  0.00    -0.387 OA
ATOM     49  H   UNL     1      -1.739  10.747  27.349  0.00  0.00    +0.210 HD
ENDBRANCH  29  48
ENDBRANCH  26  29
ENDBRANCH   1  26
TORSDOF 18
