REMARK VINA RESULT:    -4.616      3.509      6.844
REMARK INTER + INTRA:         -11.772
REMARK INTER:                  -7.662
REMARK INTRA:                  -4.110
REMARK UNBOUND:                -3.243
REMARK  Name = lig_assembled_78.pdb
REMARK  18 active torsions:
REMARK  status: ('A' for Active; 'I' for Inactive)
REMARK    1  A    between atoms: _2  and  _9
REMARK    2  A    between atoms: _4  and  _21
REMARK    3  A    between atoms: _6  and  _7
REMARK    4  A    between atoms: _6  and  _21
REMARK    5  A    between atoms: _9  and  _41
REMARK    6  A    between atoms: _10  and  _41
REMARK    7  A    between atoms: _17  and  _37
REMARK    8  A    between atoms: _19  and  _25
REMARK    9  A    between atoms: _20  and  _24
REMARK   10  A    between atoms: _24  and  _25
REMARK   11  A    between atoms: _27  and  _28
REMARK   12  A    between atoms: _29  and  _30
REMARK   13  A    between atoms: _31  and  _33
REMARK   14  A    between atoms: _33  and  _34
REMARK   15  A    between atoms: _33  and  _35
REMARK   16  A    between atoms: _35  and  _36
REMARK   17  A    between atoms: _35  and  _37
REMARK   18  A    between atoms: _38  and  _40
REMARK                            x       y       z     vdW  Elec       q    Type
REMARK                         _______ _______ _______ _____ _____    ______ ____
ROOT
ATOM      1  C   UNL     1      -3.015  10.900  23.900  0.00  0.00    +0.163 C 
ENDROOT
BRANCH   1   2
ATOM      2  O   UNL     1      -2.336  11.544  24.991  0.00  0.00    -0.388 OA
ATOM      3  H   UNL     1      -1.563  12.007  24.659  0.00  0.00    +0.210 HD
ENDBRANCH   1   2
BRANCH   1   4
ATOM      4  C   UNL     1      -4.374  10.339  24.353  0.00  0.00    +0.175 C 
BRANCH   4   5
ATOM      5  C   UNL     1      -4.243   9.433  25.587  0.00  0.00    +0.176 C 
ATOM      6  O   UNL     1      -3.016   8.665  25.449  0.00  0.00    -0.332 OA
ATOM      7  C   UNL     1      -2.669   7.815  26.592  0.00  0.00    +0.277 C 
ATOM      8  C   UNL     1      -3.843   6.868  26.939  0.00  0.00    +0.110 C 
ATOM      9  C   UNL     1      -5.176   7.636  27.064  0.00  0.00    +0.143 C 
ATOM     10  C   UNL     1      -5.437   8.489  25.823  0.00  0.00    +0.133 C 
BRANCH  10  11
ATOM     11  N   UNL     1      -6.665   9.282  25.990  0.00  0.00    -0.308 N 
ATOM     12  H   UNL     1      -6.639  10.060  26.634  0.00  0.00    +0.149 HD
ATOM     13  C   UNL     1      -7.810   9.040  25.348  0.00  0.00    +0.210 C 
ATOM     14  C   UNL     1      -7.824   7.831  24.393  0.00  0.00    +0.109 C 
ATOM     15  O   UNL     1      -8.819   9.730  25.497  0.00  0.00    -0.276 OA
ENDBRANCH  10  11
BRANCH   7  16
ATOM     16  C   UNL     1      -2.318   8.674  27.825  0.00  0.00    +0.414 C 
ATOM     17  O   UNL     1      -2.679   8.324  28.948  0.00  0.00    -0.240 OA
ATOM     18  O   UNL     1      -1.673   9.715  27.697  0.00  0.00    -0.240 OA
ENDBRANCH   7  16
BRANCH   7  19
ATOM     19  O   UNL     1      -1.524   7.006  26.219  0.00  0.00    -0.343 OA
ATOM     20  C   UNL     1      -1.847   5.695  25.692  0.00  0.00    +0.198 C 
ENDBRANCH   7  19
BRANCH   9  21
ATOM     21  O   UNL     1      -6.251   6.710  27.233  0.00  0.00    -0.390 OA
ATOM     22  H   UNL     1      -6.915   7.093  27.812  0.00  0.00    +0.210 HD
ENDBRANCH   9  21
ENDBRANCH   4   5
BRANCH   4  23
ATOM     23  O   UNL     1      -4.999   9.618  23.272  0.00  0.00    -0.387 OA
ATOM     24  H   UNL     1      -5.752   9.126  23.608  0.00  0.00    +0.210 HD
ENDBRANCH   4  23
ENDBRANCH   1   4
BRANCH   1  25
ATOM     25  C   UNL     1      -3.227  11.891  22.760  0.00  0.00    +0.141 C 
BRANCH  25  28
ATOM     26  C   UNL     1      -5.009  13.602  22.706  0.00  0.00    +0.401 C 
ATOM     27  O   UNL     1      -5.626  13.065  21.783  0.00  0.00    -0.226 OA
ATOM     28  N   UNL     1      -3.875  13.125  23.221  0.00  0.00    -0.279 N 
ATOM     29  H   UNL     1      -3.438  13.642  23.971  0.00  0.00    +0.152 HD
BRANCH  26  30
ATOM     30  O   UNL     1      -5.519  14.812  23.271  0.00  0.00    -0.444 OA
BRANCH  30  31
ATOM     31  C   UNL     1      -6.811  14.570  23.834  0.00  0.00    +0.292 C 
BRANCH  31  33
ATOM     32  N   UNL     1      -7.184  12.617  25.314  0.00  0.00    -0.131 NA
ATOM     33  C   UNL     1      -6.684  13.878  25.130  0.00  0.00    +0.120 A 
ATOM     34  C   UNL     1      -6.098  14.304  26.302  0.00  0.00    +0.139 A 
ATOM     35  N   UNL     1      -6.222  13.234  27.138  0.00  0.00    -0.230 N 
ATOM     36  N   UNL     1      -6.916  12.240  26.557  0.00  0.00    -0.064 NA
BRANCH  35  37
ATOM     37  C   UNL     1      -5.791  13.106  28.508  0.00  0.00    +0.316 C 
BRANCH  37  38
ATOM     38  S   UNL     1      -4.511  11.898  28.739  0.00  0.00    +0.017 S 
ATOM     39  O   UNL     1      -5.098  10.611  29.055  0.00  0.00    -0.168 OA
ATOM     40  O   UNL     1      -3.563  12.037  27.647  0.00  0.00    -0.168 OA
BRANCH  38  41
ATOM     41  C   UNL     1      -3.677  12.428  30.220  0.00  0.00    +0.090 A 
ATOM     42  C   UNL     1      -3.562  13.796  30.487  0.00  0.00    +0.027 A 
ATOM     43  C   UNL     1      -2.932  14.215  31.658  0.00  0.00    +0.002 A 
ATOM     44  C   UNL     1      -2.440  13.272  32.563  0.00  0.00    +0.000 A 
ATOM     45  C   UNL     1      -2.575  11.908  32.301  0.00  0.00    +0.002 A 
ATOM     46  C   UNL     1      -3.195  11.479  31.127  0.00  0.00    +0.027 A 
ENDBRANCH  38  41
ENDBRANCH  37  38
ENDBRANCH  35  37
ENDBRANCH  31  33
ENDBRANCH  30  31
ENDBRANCH  26  30
ENDBRANCH  25  28
ENDBRANCH   1  25
TORSDOF 16
