REMARK VINA RESULT:    -4.159      3.439      3.962
REMARK INTER + INTRA:         -11.069
REMARK INTER:                  -8.566
REMARK INTRA:                  -2.503
REMARK UNBOUND:                -3.505
REMARK  Name = lig_assembled_22.pdb
REMARK  20 active torsions:
REMARK  status: ('A' for Active; 'I' for Inactive)
REMARK    1  A    between atoms: _2  and  _9
REMARK    2  A    between atoms: _4  and  _18
REMARK    3  A    between atoms: _5  and  _9
REMARK    4  A    between atoms: _5  and  _12
REMARK    5  A    between atoms: _6  and  _7
REMARK    6  A    between atoms: _6  and  _18
REMARK    7  A    between atoms: _9  and  _10
REMARK    8  A    between atoms: _9  and  _11
REMARK    9  A    between atoms: _14  and  _34
REMARK   10  A    between atoms: _16  and  _22
REMARK   11  A    between atoms: _17  and  _21
REMARK   12  A    between atoms: _21  and  _22
REMARK   13  A    between atoms: _24  and  _25
REMARK   14  A    between atoms: _26  and  _27
REMARK   15  A    between atoms: _28  and  _30
REMARK   16  A    between atoms: _30  and  _31
REMARK   17  A    between atoms: _30  and  _32
REMARK   18  A    between atoms: _32  and  _33
REMARK   19  A    between atoms: _32  and  _34
REMARK   20  A    between atoms: _35  and  _37
REMARK                            x       y       z     vdW  Elec       q    Type
REMARK                         _______ _______ _______ _____ _____    ______ ____
ROOT
ATOM      1  C   UNL     1      -3.402  12.374  23.969  0.00  0.00    +0.163 C 
ENDROOT
BRANCH   1   2
ATOM      2  O   UNL     1      -2.017  12.350  24.350  0.00  0.00    -0.388 OA
ATOM      3  H   UNL     1      -1.478  12.666  23.621  0.00  0.00    +0.210 HD
ENDBRANCH   1   2
BRANCH   1   4
ATOM      4  C   UNL     1      -3.650  13.505  22.976  0.00  0.00    +0.141 C 
BRANCH   4   7
ATOM      5  C   UNL     1      -5.660  13.399  21.542  0.00  0.00    +0.401 C 
ATOM      6  O   UNL     1      -6.331  14.137  22.268  0.00  0.00    -0.226 OA
ATOM      7  N   UNL     1      -4.400  13.046  21.800  0.00  0.00    -0.279 N 
ATOM      8  H   UNL     1      -3.935  12.429  21.149  0.00  0.00    +0.152 HD
BRANCH   5   9
ATOM      9  O   UNL     1      -6.249  12.876  20.349  0.00  0.00    -0.444 OA
BRANCH   9  10
ATOM     10  C   UNL     1      -5.874  11.504  20.193  0.00  0.00    +0.292 C 
BRANCH  10  12
ATOM     11  N   UNL     1      -5.851  12.113  17.800  0.00  0.00    -0.131 NA
ATOM     12  C   UNL     1      -5.523  11.227  18.788  0.00  0.00    +0.120 A 
ATOM     13  C   UNL     1      -4.872  10.150  18.227  0.00  0.00    +0.138 A 
ATOM     14  N   UNL     1      -4.833  10.439  16.891  0.00  0.00    -0.235 N 
ATOM     15  N   UNL     1      -5.430  11.622  16.646  0.00  0.00    -0.064 NA
BRANCH  14  16
ATOM     16  C   UNL     1      -4.280   9.654  15.786  0.00  0.00    +0.155 C 
ATOM     17  C   UNL     1      -5.212   9.643  14.555  0.00  0.00    +0.048 C 
ATOM     18  C   UNL     1      -4.084   8.202  16.262  0.00  0.00    +0.048 C 
BRANCH  16  19
ATOM     19  C   UNL     1      -2.935  10.235  15.341  0.00  0.00    +0.332 C 
ATOM     20  O   UNL     1      -1.988   9.561  14.954  0.00  0.00    -0.248 OA
BRANCH  19  21
ATOM     21  O   UNL     1      -2.840  11.586  15.398  0.00  0.00    -0.479 OA
ATOM     22  H   UNL     1      -3.624  12.090  15.106  0.00  0.00    +0.295 HD
ENDBRANCH  19  21
ENDBRANCH  16  19
ENDBRANCH  14  16
ENDBRANCH  10  12
ENDBRANCH   9  10
ENDBRANCH   5   9
ENDBRANCH   4   7
ENDBRANCH   1   4
BRANCH   1  23
ATOM     23  C   UNL     1      -4.309  12.560  25.198  0.00  0.00    +0.175 C 
BRANCH  23  24
ATOM     24  C   UNL     1      -4.016  11.525  26.294  0.00  0.00    +0.176 C 
ATOM     25  O   UNL     1      -3.874  10.226  25.656  0.00  0.00    -0.332 OA
ATOM     26  C   UNL     1      -3.486   9.124  26.541  0.00  0.00    +0.277 C 
ATOM     27  C   UNL     1      -4.467   9.016  27.733  0.00  0.00    +0.110 C 
ATOM     28  C   UNL     1      -4.676  10.380  28.425  0.00  0.00    +0.143 C 
ATOM     29  C   UNL     1      -5.074  11.454  27.411  0.00  0.00    +0.133 C 
BRANCH  29  30
ATOM     30  N   UNL     1      -5.184  12.766  28.068  0.00  0.00    -0.308 N 
ATOM     31  H   UNL     1      -4.335  13.198  28.405  0.00  0.00    +0.149 HD
ATOM     32  C   UNL     1      -6.333  13.424  28.247  0.00  0.00    +0.210 C 
ATOM     33  C   UNL     1      -7.612  12.728  27.745  0.00  0.00    +0.109 C 
ATOM     34  O   UNL     1      -6.394  14.529  28.787  0.00  0.00    -0.276 OA
ENDBRANCH  29  30
BRANCH  26  35
ATOM     35  C   UNL     1      -2.051   9.328  27.071  0.00  0.00    +0.414 C 
ATOM     36  O   UNL     1      -1.753   8.964  28.208  0.00  0.00    -0.240 OA
ATOM     37  O   UNL     1      -1.193   9.855  26.362  0.00  0.00    -0.240 OA
ENDBRANCH  26  35
BRANCH  26  38
ATOM     38  O   UNL     1      -3.554   7.891  25.779  0.00  0.00    -0.343 OA
ATOM     39  C   UNL     1      -4.294   6.819  26.416  0.00  0.00    +0.198 C 
ENDBRANCH  26  38
BRANCH  28  40
ATOM     40  O   UNL     1      -5.697  10.267  29.416  0.00  0.00    -0.390 OA
ATOM     41  H   UNL     1      -5.305  10.007  30.253  0.00  0.00    +0.210 HD
ENDBRANCH  28  40
ENDBRANCH  23  24
BRANCH  23  42
ATOM     42  O   UNL     1      -5.695  12.493  24.808  0.00  0.00    -0.387 OA
ATOM     43  H   UNL     1      -5.845  13.075  24.059  0.00  0.00    +0.210 HD
ENDBRANCH  23  42
ENDBRANCH   1  23
TORSDOF 16
