REMARK VINA RESULT:    -4.070      7.102      9.967
REMARK INTER + INTRA:         -12.871
REMARK INTER:                 -10.071
REMARK INTRA:                  -2.800
REMARK UNBOUND:                -4.638
REMARK  Name = lig_assembled_11.pdb
REMARK  22 active torsions:
REMARK  status: ('A' for Active; 'I' for Inactive)
REMARK    1  A    between atoms: _2  and  _9
REMARK    2  A    between atoms: _4  and  _21
REMARK    3  A    between atoms: _5  and  _9
REMARK    4  A    between atoms: _5  and  _13
REMARK    5  A    between atoms: _6  and  _7
REMARK    6  A    between atoms: _6  and  _21
REMARK    7  A    between atoms: _9  and  _10
REMARK    8  A    between atoms: _10  and  _11
REMARK    9  A    between atoms: _11  and  _12
REMARK   10  A    between atoms: _12  and  _15
REMARK   11  A    between atoms: _17  and  _37
REMARK   12  A    between atoms: _19  and  _25
REMARK   13  A    between atoms: _20  and  _24
REMARK   14  A    between atoms: _24  and  _25
REMARK   15  A    between atoms: _27  and  _28
REMARK   16  A    between atoms: _29  and  _30
REMARK   17  A    between atoms: _31  and  _33
REMARK   18  A    between atoms: _33  and  _34
REMARK   19  A    between atoms: _33  and  _35
REMARK   20  A    between atoms: _35  and  _36
REMARK   21  A    between atoms: _35  and  _37
REMARK   22  A    between atoms: _38  and  _40
REMARK                            x       y       z     vdW  Elec       q    Type
REMARK                         _______ _______ _______ _____ _____    ______ ____
ROOT
ATOM      1  C   UNL     1      -5.102  11.058  16.861  0.00  0.00    +0.163 C 
ENDROOT
BRANCH   1   2
ATOM      2  O   UNL     1      -4.320  12.060  16.191  0.00  0.00    -0.388 OA
ATOM      3  H   UNL     1      -4.198  12.814  16.774  0.00  0.00    +0.210 HD
ENDBRANCH   1   2
BRANCH   1   4
ATOM      4  C   UNL     1      -4.548   9.650  16.581  0.00  0.00    +0.175 C 
BRANCH   4   5
ATOM      5  C   UNL     1      -3.761   9.590  15.264  0.00  0.00    +0.176 C 
ATOM      6  O   UNL     1      -4.565  10.226  14.232  0.00  0.00    -0.332 OA
ATOM      7  C   UNL     1      -3.925  10.357  12.920  0.00  0.00    +0.277 C 
ATOM      8  C   UNL     1      -3.428   8.978  12.420  0.00  0.00    +0.110 C 
ATOM      9  C   UNL     1      -2.594   8.250  13.495  0.00  0.00    +0.143 C 
ATOM     10  C   UNL     1      -3.353   8.173  14.820  0.00  0.00    +0.133 C 
BRANCH  10  11
ATOM     11  N   UNL     1      -2.515   7.555  15.859  0.00  0.00    -0.308 N 
ATOM     12  H   UNL     1      -1.681   8.048  16.147  0.00  0.00    +0.149 HD
ATOM     13  C   UNL     1      -2.783   6.386  16.447  0.00  0.00    +0.210 C 
ATOM     14  C   UNL     1      -4.047   5.648  15.967  0.00  0.00    +0.109 C 
ATOM     15  O   UNL     1      -2.070   5.899  17.325  0.00  0.00    -0.276 OA
ENDBRANCH  10  11
BRANCH   7  16
ATOM     16  C   UNL     1      -2.738  11.340  12.986  0.00  0.00    +0.414 C 
ATOM     17  O   UNL     1      -2.720  12.235  13.831  0.00  0.00    -0.240 OA
ATOM     18  O   UNL     1      -1.800  11.239  12.195  0.00  0.00    -0.240 OA
ENDBRANCH   7  16
BRANCH   7  19
ATOM     19  O   UNL     1      -4.918  10.852  11.984  0.00  0.00    -0.343 OA
ATOM     20  C   UNL     1      -4.933  10.183  10.698  0.00  0.00    +0.198 C 
ENDBRANCH   7  19
BRANCH   9  21
ATOM     21  O   UNL     1      -2.286   6.928  13.052  0.00  0.00    -0.390 OA
ATOM     22  H   UNL     1      -2.197   6.923  12.096  0.00  0.00    +0.210 HD
ENDBRANCH   9  21
ENDBRANCH   4   5
BRANCH   4  23
ATOM     23  O   UNL     1      -5.622   8.688  16.561  0.00  0.00    -0.387 OA
ATOM     24  H   UNL     1      -6.059   8.679  17.416  0.00  0.00    +0.210 HD
ENDBRANCH   4  23
ENDBRANCH   1   4
BRANCH   1  25
ATOM     25  C   UNL     1      -5.104  11.315  18.364  0.00  0.00    +0.141 C 
BRANCH  25  28
ATOM     26  C   UNL     1      -5.619   9.395  19.832  0.00  0.00    +0.401 C 
ATOM     27  O   UNL     1      -6.817   9.670  19.930  0.00  0.00    -0.226 OA
ATOM     28  N   UNL     1      -4.744  10.112  19.125  0.00  0.00    -0.279 N 
ATOM     29  H   UNL     1      -3.780   9.811  19.113  0.00  0.00    +0.152 HD
BRANCH  26  30
ATOM     30  O   UNL     1      -5.113   8.243  20.512  0.00  0.00    -0.444 OA
BRANCH  30  31
ATOM     31  C   UNL     1      -5.469   8.310  21.895  0.00  0.00    +0.292 C 
BRANCH  31  33
ATOM     32  N   UNL     1      -3.369   9.531  22.372  0.00  0.00    -0.131 NA
ATOM     33  C   UNL     1      -4.714   9.383  22.569  0.00  0.00    +0.120 A 
ATOM     34  C   UNL     1      -5.150  10.359  23.436  0.00  0.00    +0.138 A 
ATOM     35  N   UNL     1      -4.017  11.046  23.767  0.00  0.00    -0.238 N 
ATOM     36  N   UNL     1      -2.954  10.560  23.099  0.00  0.00    -0.065 NA
BRANCH  35  37
ATOM     37  C   UNL     1      -3.842  12.246  24.579  0.00  0.00    +0.217 C 
BRANCH  37  38
ATOM     38  C   UNL     1      -3.861  13.538  23.776  0.00  0.00    +0.330 C 
ATOM     39  O   UNL     1      -4.673  14.443  23.895  0.00  0.00    -0.249 OA
BRANCH  38  40
ATOM     40  O   UNL     1      -2.866  13.631  22.858  0.00  0.00    -0.479 OA
ATOM     41  H   UNL     1      -2.981  14.284  22.140  0.00  0.00    +0.295 HD
ENDBRANCH  38  40
ENDBRANCH  37  38
BRANCH  37  42
ATOM     42  C   UNL     1      -2.616  12.140  25.503  0.00  0.00    +0.049 C 
BRANCH  42  43
ATOM     43  C   UNL     1      -2.826  11.285  26.759  0.00  0.00    +0.123 C 
BRANCH  43  44
ATOM     44  C   UNL     1      -2.113   9.957  26.637  0.00  0.00    +0.305 C 
ATOM     45  O   UNL     1      -0.910   9.825  26.488  0.00  0.00    -0.251 OA
BRANCH  44  46
ATOM     46  O   UNL     1      -2.961   8.906  26.686  0.00  0.00    -0.481 OA
ATOM     47  H   UNL     1      -3.491   8.774  25.877  0.00  0.00    +0.295 HD
ENDBRANCH  44  46
ENDBRANCH  43  44
ENDBRANCH  42  43
ENDBRANCH  37  42
ENDBRANCH  35  37
ENDBRANCH  31  33
ENDBRANCH  30  31
ENDBRANCH  26  30
ENDBRANCH  25  28
ENDBRANCH   1  25
TORSDOF 20
