REMARK VINA RESULT:    -4.382      2.591      6.123
REMARK INTER + INTRA:         -12.222
REMARK INTER:                  -9.382
REMARK INTRA:                  -2.840
REMARK UNBOUND:                -3.997
REMARK  Name = lig_assembled_68.pdb
REMARK  19 active torsions:
REMARK  status: ('A' for Active; 'I' for Inactive)
REMARK    1  A    between atoms: _2  and  _9
REMARK    2  A    between atoms: _4  and  _21
REMARK    3  A    between atoms: _6  and  _7
REMARK    4  A    between atoms: _6  and  _21
REMARK    5  A    between atoms: _9  and  _10
REMARK    6  A    between atoms: _10  and  _11
REMARK    7  A    between atoms: _10  and  _16
REMARK    8  A    between atoms: _17  and  _37
REMARK    9  A    between atoms: _19  and  _25
REMARK   10  A    between atoms: _20  and  _24
REMARK   11  A    between atoms: _24  and  _25
REMARK   12  A    between atoms: _27  and  _28
REMARK   13  A    between atoms: _29  and  _30
REMARK   14  A    between atoms: _31  and  _33
REMARK   15  A    between atoms: _33  and  _34
REMARK   16  A    between atoms: _33  and  _35
REMARK   17  A    between atoms: _35  and  _36
REMARK   18  A    between atoms: _35  and  _37
REMARK   19  A    between atoms: _38  and  _40
REMARK                            x       y       z     vdW  Elec       q    Type
REMARK                         _______ _______ _______ _____ _____    ______ ____
ROOT
ATOM      1  C   UNL     1      -4.434   9.021  23.992  0.00  0.00    +0.163 C 
ENDROOT
BRANCH   1   2
ATOM      2  O   UNL     1      -3.968   8.356  22.806  0.00  0.00    -0.388 OA
ATOM      3  H   UNL     1      -4.023   7.405  22.929  0.00  0.00    +0.210 HD
ENDBRANCH   1   2
BRANCH   1   4
ATOM      4  C   UNL     1      -5.807   9.672  23.753  0.00  0.00    +0.175 C 
BRANCH   4   5
ATOM      5  C   UNL     1      -5.695  10.989  22.971  0.00  0.00    +0.176 C 
ATOM      6  O   UNL     1      -5.355  10.664  21.595  0.00  0.00    -0.332 OA
ATOM      7  C   UNL     1      -5.308  11.798  20.668  0.00  0.00    +0.277 C 
ATOM      8  C   UNL     1      -4.349  12.892  21.199  0.00  0.00    +0.110 C 
ATOM      9  C   UNL     1      -4.652  13.249  22.670  0.00  0.00    +0.143 C 
ATOM     10  C   UNL     1      -4.679  11.995  23.544  0.00  0.00    +0.133 C 
BRANCH  10  11
ATOM     11  N   UNL     1      -5.053  12.338  24.925  0.00  0.00    -0.308 N 
ATOM     12  H   UNL     1      -6.018  12.577  25.107  0.00  0.00    +0.149 HD
ATOM     13  C   UNL     1      -4.202  12.354  25.954  0.00  0.00    +0.210 C 
ATOM     14  C   UNL     1      -2.734  12.010  25.640  0.00  0.00    +0.109 C 
ATOM     15  O   UNL     1      -4.547  12.631  27.104  0.00  0.00    -0.276 OA
ENDBRANCH  10  11
BRANCH   7  16
ATOM     16  C   UNL     1      -6.715  12.399  20.468  0.00  0.00    +0.414 C 
ATOM     17  O   UNL     1      -7.709  11.674  20.498  0.00  0.00    -0.240 OA
ATOM     18  O   UNL     1      -6.856  13.608  20.277  0.00  0.00    -0.240 OA
ENDBRANCH   7  16
BRANCH   7  19
ATOM     19  O   UNL     1      -4.796  11.319  19.398  0.00  0.00    -0.343 OA
ATOM     20  C   UNL     1      -5.034   9.914  19.132  0.00  0.00    +0.198 C 
ENDBRANCH   7  19
BRANCH   9  21
ATOM     21  O   UNL     1      -3.654  14.144  23.163  0.00  0.00    -0.390 OA
ATOM     22  H   UNL     1      -3.773  15.009  22.762  0.00  0.00    +0.210 HD
ENDBRANCH   9  21
ENDBRANCH   4   5
BRANCH   4  23
ATOM     23  O   UNL     1      -6.475   9.898  25.011  0.00  0.00    -0.387 OA
ATOM     24  H   UNL     1      -7.276   9.370  25.048  0.00  0.00    +0.210 HD
ENDBRANCH   4  23
ENDBRANCH   1   4
BRANCH   1  25
ATOM     25  C   UNL     1      -4.535   8.026  25.143  0.00  0.00    +0.141 C 
BRANCH  25  28
ATOM     26  C   UNL     1      -2.836   8.543  26.861  0.00  0.00    +0.401 C 
ATOM     27  O   UNL     1      -1.921   7.971  26.263  0.00  0.00    -0.226 OA
ATOM     28  N   UNL     1      -4.090   8.612  26.413  0.00  0.00    -0.279 N 
ATOM     29  H   UNL     1      -4.773   9.094  26.980  0.00  0.00    +0.152 HD
BRANCH  26  30
ATOM     30  O   UNL     1      -2.559   9.172  28.115  0.00  0.00    -0.444 OA
BRANCH  30  31
ATOM     31  C   UNL     1      -3.787   9.570  28.731  0.00  0.00    +0.292 C 
BRANCH  31  33
ATOM     32  N   UNL     1      -2.628   9.695  30.920  0.00  0.00    -0.131 NA
ATOM     33  C   UNL     1      -3.527  10.221  30.027  0.00  0.00    +0.120 A 
ATOM     34  C   UNL     1      -4.076  11.363  30.562  0.00  0.00    +0.137 A 
ATOM     35  N   UNL     1      -3.465  11.483  31.776  0.00  0.00    -0.249 N 
ATOM     36  N   UNL     1      -2.604  10.474  31.993  0.00  0.00    -0.065 NA
BRANCH  35  37
ATOM     37  C   UNL     1      -3.727  12.466  32.807  0.00  0.00    +0.181 C 
BRANCH  37  38
ATOM     38  C   UNL     1      -2.745  13.644  32.746  0.00  0.00    +0.166 C 
BRANCH  38  39
ATOM     39  C   UNL     1      -3.371  14.960  32.310  0.00  0.00    -0.017 A 
ATOM     40  C   UNL     1      -3.286  16.071  33.170  0.00  0.00    +0.006 A 
ATOM     41  C   UNL     1      -3.824  17.305  32.798  0.00  0.00    +0.000 A 
ATOM     42  C   UNL     1      -4.448  17.451  31.564  0.00  0.00    +0.000 A 
ATOM     43  C   UNL     1      -4.525  16.370  30.694  0.00  0.00    +0.000 A 
ATOM     44  C   UNL     1      -3.987  15.133  31.061  0.00  0.00    +0.006 A 
ENDBRANCH  38  39
BRANCH  38  45
ATOM     45  O   UNL     1      -1.695  13.329  31.825  0.00  0.00    -0.385 OA
ATOM     46  H   UNL     1      -1.276  14.159  31.546  0.00  0.00    +0.210 HD
ENDBRANCH  38  45
ENDBRANCH  37  38
ENDBRANCH  35  37
ENDBRANCH  31  33
ENDBRANCH  30  31
ENDBRANCH  26  30
ENDBRANCH  25  28
ENDBRANCH   1  25
TORSDOF 17
