REMARK VINA RESULT:    -5.475      5.866     12.564
REMARK INTER + INTRA:         -11.911
REMARK INTER:                  -9.539
REMARK INTRA:                  -2.372
REMARK UNBOUND:                -1.954
REMARK  Name = lig_assembled_60.pdb
REMARK  18 active torsions:
REMARK  status: ('A' for Active; 'I' for Inactive)
REMARK    1  A    between atoms: _2  and  _10
REMARK    2  A    between atoms: _3  and  _41
REMARK    3  A    between atoms: _5  and  _21
REMARK    4  A    between atoms: _7  and  _8
REMARK    5  A    between atoms: _7  and  _21
REMARK    6  A    between atoms: _13  and  _41
REMARK    7  A    between atoms: _17  and  _37
REMARK    8  A    between atoms: _19  and  _25
REMARK    9  A    between atoms: _20  and  _24
REMARK   10  A    between atoms: _24  and  _25
REMARK   11  A    between atoms: _27  and  _28
REMARK   12  A    between atoms: _29  and  _30
REMARK   13  A    between atoms: _31  and  _33
REMARK   14  A    between atoms: _33  and  _34
REMARK   15  A    between atoms: _33  and  _35
REMARK   16  A    between atoms: _35  and  _36
REMARK   17  A    between atoms: _35  and  _37
REMARK   18  A    between atoms: _38  and  _40
REMARK                            x       y       z     vdW  Elec       q    Type
REMARK                         _______ _______ _______ _____ _____    ______ ____
ROOT
ATOM      1  C   UNL     1      -5.485   8.745  24.077  0.00  0.00    +0.141 C 
ENDROOT
BRANCH   1   4
ATOM      2  C   UNL     1      -4.138  10.373  22.796  0.00  0.00    +0.401 C 
ATOM      3  O   UNL     1      -3.241   9.568  22.534  0.00  0.00    -0.226 OA
ATOM      4  N   UNL     1      -5.220  10.076  23.516  0.00  0.00    -0.279 N 
ATOM      5  H   UNL     1      -5.896  10.807  23.685  0.00  0.00    +0.152 HD
BRANCH   2   6
ATOM      6  O   UNL     1      -4.030  11.714  22.311  0.00  0.00    -0.444 OA
BRANCH   6   7
ATOM      7  C   UNL     1      -5.304  12.152  21.831  0.00  0.00    +0.292 C 
BRANCH   7   9
ATOM      8  N   UNL     1      -6.477  12.418  19.667  0.00  0.00    -0.131 NA
ATOM      9  C   UNL     1      -5.367  12.033  20.362  0.00  0.00    +0.121 A 
ATOM     10  C   UNL     1      -4.420  11.572  19.477  0.00  0.00    +0.143 A 
ATOM     11  N   UNL     1      -4.988  11.731  18.233  0.00  0.00    -0.220 N 
ATOM     12  N   UNL     1      -6.243  12.223  18.376  0.00  0.00    -0.060 NA
BRANCH  11  13
ATOM     13  C   UNL     1      -4.411  11.489  16.959  0.00  0.00    +0.067 A 
ATOM     14  C   UNL     1      -4.184  12.548  16.066  0.00  0.00    +0.030 A 
ATOM     15  C   UNL     1      -3.681  12.291  14.789  0.00  0.00    +0.030 A 
ATOM     16  C   UNL     1      -3.391  10.978  14.408  0.00  0.00    +0.105 A 
ATOM     17  C   UNL     1      -3.599   9.918  15.295  0.00  0.00    +0.030 A 
ATOM     18  C   UNL     1      -4.102  10.175  16.573  0.00  0.00    +0.030 A 
BRANCH  16  19
ATOM     19  S   UNL     1      -2.830  10.659  12.762  0.00  0.00    +0.056 S 
ATOM     20  O   UNL     1      -1.989   9.485  12.764  0.00  0.00    -0.153 OA
ATOM     21  O   UNL     1      -3.936  10.820  11.846  0.00  0.00    -0.153 OA
BRANCH  19  22
ATOM     22  N   UNL     1      -1.809  11.961  12.491  0.00  0.00    -0.204 NA
ATOM     23  H   UNL     1      -2.057  12.730  13.114  0.00  0.00    +0.144 HD
ATOM     24  H   UNL     1      -1.824  12.211  11.501  0.00  0.00    +0.144 HD
ENDBRANCH  19  22
ENDBRANCH  16  19
ENDBRANCH  11  13
ENDBRANCH   7   9
ENDBRANCH   6   7
ENDBRANCH   2   6
ENDBRANCH   1   4
BRANCH   1  25
ATOM     25  C   UNL     1      -5.367   8.736  25.598  0.00  0.00    +0.163 C 
BRANCH  25  26
ATOM     26  O   UNL     1      -6.555   8.174  26.179  0.00  0.00    -0.388 OA
ATOM     27  H   UNL     1      -6.575   8.368  27.119  0.00  0.00    +0.210 HD
ENDBRANCH  25  26
BRANCH  25  28
ATOM     28  C   UNL     1      -4.120   7.936  26.012  0.00  0.00    +0.175 C 
BRANCH  28  29
ATOM     29  C   UNL     1      -3.686   8.247  27.452  0.00  0.00    +0.176 C 
ATOM     30  O   UNL     1      -4.629   7.602  28.352  0.00  0.00    -0.332 OA
ATOM     31  C   UNL     1      -4.312   7.702  29.780  0.00  0.00    +0.277 C 
ATOM     32  C   UNL     1      -4.126   9.183  30.191  0.00  0.00    +0.110 C 
ATOM     33  C   UNL     1      -3.157   9.920  29.243  0.00  0.00    +0.143 C 
ATOM     34  C   UNL     1      -3.579   9.747  27.783  0.00  0.00    +0.133 C 
BRANCH  34  35
ATOM     35  N   UNL     1      -2.600  10.379  26.885  0.00  0.00    -0.308 N 
ATOM     36  H   UNL     1      -1.686   9.954  26.809  0.00  0.00    +0.149 HD
ATOM     37  C   UNL     1      -2.839  11.478  26.164  0.00  0.00    +0.210 C 
ATOM     38  C   UNL     1      -4.232  12.117  26.323  0.00  0.00    +0.109 C 
ATOM     39  O   UNL     1      -2.005  11.978  25.409  0.00  0.00    -0.276 OA
ENDBRANCH  34  35
BRANCH  31  40
ATOM     40  C   UNL     1      -3.029   6.911  30.113  0.00  0.00    +0.414 C 
ATOM     41  O   UNL     1      -2.493   7.033  31.213  0.00  0.00    -0.240 OA
ATOM     42  O   UNL     1      -2.532   6.151  29.281  0.00  0.00    -0.240 OA
ENDBRANCH  31  40
BRANCH  33  43
ATOM     43  O   UNL     1      -3.133  11.311  29.564  0.00  0.00    -0.390 OA
ATOM     44  H   UNL     1      -2.224  11.596  29.690  0.00  0.00    +0.210 HD
ENDBRANCH  33  43
BRANCH  31  45
ATOM     45  O   UNL     1      -5.429   7.157  30.527  0.00  0.00    -0.343 OA
ATOM     46  C   UNL     1      -5.727   7.841  31.771  0.00  0.00    +0.198 C 
ENDBRANCH  31  45
ENDBRANCH  28  29
BRANCH  28  47
ATOM     47  O   UNL     1      -3.036   8.198  25.099  0.00  0.00    -0.387 OA
ATOM     48  H   UNL     1      -2.733   9.102  25.213  0.00  0.00    +0.210 HD
ENDBRANCH  28  47
ENDBRANCH  25  28
ENDBRANCH   1  25
TORSDOF 16
