REMARK VINA RESULT:    -4.758      1.710      2.720
REMARK INTER + INTRA:         -12.668
REMARK INTER:                  -8.693
REMARK INTRA:                  -3.975
REMARK UNBOUND:                -3.181
REMARK  Name = lig_assembled_76.pdb
REMARK  21 active torsions:
REMARK  status: ('A' for Active; 'I' for Inactive)
REMARK    1  A    between atoms: _2  and  _9
REMARK    2  A    between atoms: _4  and  _23
REMARK    3  A    between atoms: _6  and  _7
REMARK    4  A    between atoms: _6  and  _23
REMARK    5  A    between atoms: _9  and  _10
REMARK    6  A    between atoms: _10  and  _11
REMARK    7  A    between atoms: _10  and  _18
REMARK    8  A    between atoms: _11  and  _12
REMARK    9  A    between atoms: _12  and  _13
REMARK   10  A    between atoms: _19  and  _39
REMARK   11  A    between atoms: _21  and  _27
REMARK   12  A    between atoms: _22  and  _26
REMARK   13  A    between atoms: _26  and  _27
REMARK   14  A    between atoms: _29  and  _30
REMARK   15  A    between atoms: _31  and  _32
REMARK   16  A    between atoms: _33  and  _35
REMARK   17  A    between atoms: _35  and  _36
REMARK   18  A    between atoms: _35  and  _37
REMARK   19  A    between atoms: _37  and  _38
REMARK   20  A    between atoms: _37  and  _39
REMARK   21  A    between atoms: _40  and  _42
REMARK                            x       y       z     vdW  Elec       q    Type
REMARK                         _______ _______ _______ _____ _____    ______ ____
ROOT
ATOM      1  C   UNL     1      -4.551   7.631  25.024  0.00  0.00    +0.141 C 
ENDROOT
BRANCH   1   4
ATOM      2  C   UNL     1      -2.566   7.398  26.478  0.00  0.00    +0.401 C 
ATOM      3  O   UNL     1      -2.075   6.478  25.819  0.00  0.00    -0.226 OA
ATOM      4  N   UNL     1      -3.723   7.992  26.182  0.00  0.00    -0.279 N 
ATOM      5  H   UNL     1      -4.049   8.731  26.788  0.00  0.00    +0.152 HD
BRANCH   2   6
ATOM      6  O   UNL     1      -1.873   7.871  27.635  0.00  0.00    -0.444 OA
BRANCH   6   7
ATOM      7  C   UNL     1      -2.565   7.448  28.813  0.00  0.00    +0.292 C 
BRANCH   7   9
ATOM      8  N   UNL     1      -4.589   8.865  29.020  0.00  0.00    -0.131 NA
ATOM      9  C   UNL     1      -3.306   8.574  29.406  0.00  0.00    +0.120 A 
ATOM     10  C   UNL     1      -2.905   9.482  30.361  0.00  0.00    +0.137 A 
ATOM     11  N   UNL     1      -3.987  10.292  30.513  0.00  0.00    -0.249 N 
ATOM     12  N   UNL     1      -4.994   9.929  29.701  0.00  0.00    -0.065 NA
BRANCH  11  13
ATOM     13  C   UNL     1      -4.085  11.497  31.305  0.00  0.00    +0.176 C 
BRANCH  13  14
ATOM     14  C   UNL     1      -3.752  12.764  30.508  0.00  0.00    +0.136 C 
BRANCH  14  15
ATOM     15  O   UNL     1      -4.158  12.609  29.141  0.00  0.00    -0.390 OA
ATOM     16  H   UNL     1      -4.013  11.686  28.868  0.00  0.00    +0.210 HD
ENDBRANCH  14  15
BRANCH  14  17
ATOM     17  C   UNL     1      -4.464  14.009  31.061  0.00  0.00    +0.038 C 
BRANCH  17  18
ATOM     18  C   UNL     1      -3.510  15.153  31.404  0.00  0.00    +0.038 C 
BRANCH  18  19
ATOM     19  C   UNL     1      -4.149  16.503  31.206  0.00  0.00    -0.047 A 
ATOM     20  C   UNL     1      -3.936  17.530  32.137  0.00  0.00    +0.003 A 
ATOM     21  C   UNL     1      -4.511  18.787  31.947  0.00  0.00    +0.000 A 
ATOM     22  C   UNL     1      -5.308  19.027  30.830  0.00  0.00    +0.000 A 
ATOM     23  C   UNL     1      -5.533  18.009  29.904  0.00  0.00    +0.000 A 
ATOM     24  C   UNL     1      -4.960  16.751  30.093  0.00  0.00    +0.003 A 
ENDBRANCH  18  19
ENDBRANCH  17  18
ENDBRANCH  14  17
ENDBRANCH  13  14
ENDBRANCH  11  13
ENDBRANCH   7   9
ENDBRANCH   6   7
ENDBRANCH   2   6
ENDBRANCH   1   4
BRANCH   1  25
ATOM     25  C   UNL     1      -5.954   8.220  25.122  0.00  0.00    +0.163 C 
BRANCH  25  26
ATOM     26  O   UNL     1      -6.140   8.834  26.408  0.00  0.00    -0.388 OA
ATOM     27  H   UNL     1      -5.285   8.986  26.818  0.00  0.00    +0.210 HD
ENDBRANCH  25  26
BRANCH  25  28
ATOM     28  C   UNL     1      -6.163   9.241  23.990  0.00  0.00    +0.175 C 
BRANCH  28  29
ATOM     29  C   UNL     1      -5.116  10.364  24.024  0.00  0.00    +0.176 C 
ATOM     30  O   UNL     1      -5.458  11.262  25.114  0.00  0.00    -0.332 OA
ATOM     31  C   UNL     1      -4.503  12.345  25.367  0.00  0.00    +0.277 C 
ATOM     32  C   UNL     1      -4.256  13.161  24.074  0.00  0.00    +0.110 C 
ATOM     33  C   UNL     1      -3.919  12.246  22.879  0.00  0.00    +0.143 C 
ATOM     34  C   UNL     1      -4.976  11.154  22.709  0.00  0.00    +0.133 C 
BRANCH  34  35
ATOM     35  N   UNL     1      -4.600  10.237  21.622  0.00  0.00    -0.308 N 
ATOM     36  H   UNL     1      -3.727   9.734  21.709  0.00  0.00    +0.149 HD
ATOM     37  C   UNL     1      -5.335  10.025  20.527  0.00  0.00    +0.210 C 
ATOM     38  C   UNL     1      -6.646  10.825  20.412  0.00  0.00    +0.109 C 
ATOM     39  O   UNL     1      -5.002   9.239  19.639  0.00  0.00    -0.276 OA
ENDBRANCH  34  35
BRANCH  31  40
ATOM     40  C   UNL     1      -3.163  11.783  25.886  0.00  0.00    +0.414 C 
ATOM     41  O   UNL     1      -3.142  11.025  26.855  0.00  0.00    -0.240 OA
ATOM     42  O   UNL     1      -2.104  12.086  25.335  0.00  0.00    -0.240 OA
ENDBRANCH  31  40
BRANCH  33  43
ATOM     43  O   UNL     1      -3.849  13.023  21.682  0.00  0.00    -0.390 OA
ATOM     44  H   UNL     1      -2.946  13.316  21.543  0.00  0.00    +0.210 HD
ENDBRANCH  33  43
BRANCH  31  45
ATOM     45  O   UNL     1      -5.079  13.229  26.363  0.00  0.00    -0.343 OA
ATOM     46  C   UNL     1      -6.245  13.971  25.922  0.00  0.00    +0.198 C 
ENDBRANCH  31  45
ENDBRANCH  28  29
BRANCH  28  47
ATOM     47  O   UNL     1      -7.491   9.798  24.063  0.00  0.00    -0.387 OA
ATOM     48  H   UNL     1      -8.023   9.451  23.343  0.00  0.00    +0.210 HD
ENDBRANCH  28  47
ENDBRANCH  25  28
ENDBRANCH   1  25
TORSDOF 19
