REMARK VINA RESULT:    -4.126      3.945      7.722
REMARK INTER + INTRA:         -10.913
REMARK INTER:                  -6.998
REMARK INTRA:                  -3.915
REMARK UNBOUND:                -3.048
REMARK  Name = lig_assembled_50.pdb
REMARK  20 active torsions:
REMARK  status: ('A' for Active; 'I' for Inactive)
REMARK    1  A    between atoms: _2  and  _9
REMARK    2  A    between atoms: _4  and  _17
REMARK    3  A    between atoms: _5  and  _10
REMARK    4  A    between atoms: _5  and  _11
REMARK    5  A    between atoms: _6  and  _7
REMARK    6  A    between atoms: _6  and  _17
REMARK    7  A    between atoms: _9  and  _10
REMARK    8  A    between atoms: _10  and  _12
REMARK    9  A    between atoms: _13  and  _33
REMARK   10  A    between atoms: _15  and  _21
REMARK   11  A    between atoms: _16  and  _20
REMARK   12  A    between atoms: _20  and  _21
REMARK   13  A    between atoms: _23  and  _24
REMARK   14  A    between atoms: _25  and  _26
REMARK   15  A    between atoms: _27  and  _29
REMARK   16  A    between atoms: _29  and  _30
REMARK   17  A    between atoms: _29  and  _31
REMARK   18  A    between atoms: _31  and  _32
REMARK   19  A    between atoms: _31  and  _33
REMARK   20  A    between atoms: _34  and  _36
REMARK                            x       y       z     vdW  Elec       q    Type
REMARK                         _______ _______ _______ _____ _____    ______ ____
ROOT
ATOM      1  C   UNL     1      -3.535  10.757  30.925  0.00  0.00    +0.163 C 
ENDROOT
BRANCH   1   2
ATOM      2  O   UNL     1      -2.967  11.703  30.005  0.00  0.00    -0.388 OA
ATOM      3  H   UNL     1      -2.079  11.935  30.289  0.00  0.00    +0.210 HD
ENDBRANCH   1   2
BRANCH   1   4
ATOM      4  C   UNL     1      -3.600   9.353  30.300  0.00  0.00    +0.175 C 
BRANCH   4   5
ATOM      5  C   UNL     1      -3.185   9.359  28.822  0.00  0.00    +0.176 C 
ATOM      6  O   UNL     1      -4.236  10.018  28.064  0.00  0.00    -0.332 OA
ATOM      7  C   UNL     1      -3.963  10.212  26.637  0.00  0.00    +0.277 C 
ATOM      8  C   UNL     1      -3.604   8.863  25.967  0.00  0.00    +0.110 C 
ATOM      9  C   UNL     1      -2.511   8.109  26.755  0.00  0.00    +0.143 C 
ATOM     10  C   UNL     1      -2.897   7.967  28.228  0.00  0.00    +0.133 C 
BRANCH  10  11
ATOM     11  N   UNL     1      -1.811   7.325  28.985  0.00  0.00    -0.308 N 
ATOM     12  H   UNL     1      -0.909   7.781  28.995  0.00  0.00    +0.149 HD
ATOM     13  C   UNL     1      -1.938   6.180  29.660  0.00  0.00    +0.210 C 
ATOM     14  C   UNL     1      -3.317   5.496  29.604  0.00  0.00    +0.109 C 
ATOM     15  O   UNL     1      -1.015   5.673  30.297  0.00  0.00    -0.276 OA
ENDBRANCH  10  11
BRANCH   7  16
ATOM     16  C   UNL     1      -2.808  11.213  26.431  0.00  0.00    +0.414 C 
ATOM     17  O   UNL     1      -2.651  12.148  27.216  0.00  0.00    -0.240 OA
ATOM     18  O   UNL     1      -2.034  11.087  25.482  0.00  0.00    -0.240 OA
ENDBRANCH   7  16
BRANCH   9  19
ATOM     19  O   UNL     1      -2.320   6.811  26.191  0.00  0.00    -0.390 OA
ATOM     20  H   UNL     1      -2.663   6.146  26.793  0.00  0.00    +0.210 HD
ENDBRANCH   9  19
BRANCH   7  21
ATOM     21  O   UNL     1      -5.170  10.724  26.014  0.00  0.00    -0.343 OA
ATOM     22  C   UNL     1      -6.284   9.796  25.983  0.00  0.00    +0.198 C 
ENDBRANCH   7  21
ENDBRANCH   4   5
BRANCH   4  23
ATOM     23  O   UNL     1      -4.928   8.808  30.441  0.00  0.00    -0.387 OA
ATOM     24  H   UNL     1      -5.400   9.288  31.125  0.00  0.00    +0.210 HD
ENDBRANCH   4  23
ENDBRANCH   1   4
BRANCH   1  25
ATOM     25  C   UNL     1      -2.703  10.708  32.202  0.00  0.00    +0.141 C 
BRANCH  25  28
ATOM     26  C   UNL     1      -2.349  13.031  32.967  0.00  0.00    +0.401 C 
ATOM     27  O   UNL     1      -1.475  13.273  32.131  0.00  0.00    -0.226 OA
ATOM     28  N   UNL     1      -2.972  11.857  33.076  0.00  0.00    -0.279 N 
ATOM     29  H   UNL     1      -3.669  11.752  33.800  0.00  0.00    +0.152 HD
BRANCH  26  30
ATOM     30  O   UNL     1      -2.731  14.056  33.888  0.00  0.00    -0.444 OA
BRANCH  30  31
ATOM     31  C   UNL     1      -4.154  14.200  33.879  0.00  0.00    +0.292 C 
BRANCH  31  33
ATOM     32  N   UNL     1      -3.990  15.566  31.816  0.00  0.00    -0.131 NA
ATOM     33  C   UNL     1      -4.625  14.581  32.532  0.00  0.00    +0.120 A 
ATOM     34  C   UNL     1      -5.671  14.084  31.784  0.00  0.00    +0.137 A 
ATOM     35  N   UNL     1      -5.624  14.808  30.636  0.00  0.00    -0.249 N 
ATOM     36  N   UNL     1      -4.603  15.686  30.650  0.00  0.00    -0.065 NA
BRANCH  35  37
ATOM     37  C   UNL     1      -6.505  14.737  29.492  0.00  0.00    +0.178 C 
BRANCH  37  38
ATOM     38  C   UNL     1      -6.206  13.569  28.545  0.00  0.00    +0.161 C 
BRANCH  38  39
ATOM     39  O   UNL     1      -4.858  13.104  28.652  0.00  0.00    -0.388 OA
ATOM     40  H   UNL     1      -4.770  12.593  29.483  0.00  0.00    +0.210 HD
ENDBRANCH  38  39
BRANCH  38  41
ATOM     41  C   UNL     1      -7.176  12.390  28.699  0.00  0.00    +0.189 C 
BRANCH  41  42
ATOM     42  O   UNL     1      -6.530  11.260  29.285  0.00  0.00    -0.392 OA
ATOM     43  H   UNL     1      -6.481  10.555  28.611  0.00  0.00    +0.210 HD
ENDBRANCH  41  42
ENDBRANCH  38  41
ENDBRANCH  37  38
ENDBRANCH  35  37
ENDBRANCH  31  33
ENDBRANCH  30  31
ENDBRANCH  26  30
ENDBRANCH  25  28
ENDBRANCH   1  25
TORSDOF 18
