REMARK VINA RESULT:    -5.181      2.425      8.004
REMARK INTER + INTRA:         -11.956
REMARK INTER:                  -8.357
REMARK INTRA:                  -3.599
REMARK UNBOUND:                -2.989
REMARK  Name = lig_assembled_51.pdb
REMARK  16 active torsions:
REMARK  status: ('A' for Active; 'I' for Inactive)
REMARK    1  A    between atoms: _2  and  _9
REMARK    2  A    between atoms: _4  and  _22
REMARK    3  A    between atoms: _6  and  _7
REMARK    4  A    between atoms: _6  and  _22
REMARK    5  A    between atoms: _18  and  _38
REMARK    6  A    between atoms: _20  and  _26
REMARK    7  A    between atoms: _21  and  _25
REMARK    8  A    between atoms: _25  and  _26
REMARK    9  A    between atoms: _28  and  _29
REMARK   10  A    between atoms: _30  and  _31
REMARK   11  A    between atoms: _32  and  _34
REMARK   12  A    between atoms: _34  and  _35
REMARK   13  A    between atoms: _34  and  _36
REMARK   14  A    between atoms: _36  and  _37
REMARK   15  A    between atoms: _36  and  _38
REMARK   16  A    between atoms: _39  and  _41
REMARK                            x       y       z     vdW  Elec       q    Type
REMARK                         _______ _______ _______ _____ _____    ______ ____
ROOT
ATOM      1  C   UNL     1      -4.109   9.989  29.996  0.00  0.00    +0.163 C 
ENDROOT
BRANCH   1   2
ATOM      2  O   UNL     1      -4.608   9.948  31.343  0.00  0.00    -0.388 OA
ATOM      3  H   UNL     1      -5.555   9.792  31.329  0.00  0.00    +0.210 HD
ENDBRANCH   1   2
BRANCH   1   4
ATOM      4  C   UNL     1      -2.864   9.116  29.874  0.00  0.00    +0.141 C 
BRANCH   4   7
ATOM      5  C   UNL     1      -1.927   8.581  27.652  0.00  0.00    +0.401 C 
ATOM      6  O   UNL     1      -1.024   9.417  27.727  0.00  0.00    -0.226 OA
ATOM      7  N   UNL     1      -2.835   8.377  28.606  0.00  0.00    -0.279 N 
ATOM      8  H   UNL     1      -3.544   7.674  28.448  0.00  0.00    +0.152 HD
BRANCH   5   9
ATOM      9  O   UNL     1      -2.028   7.772  26.477  0.00  0.00    -0.444 OA
BRANCH   9  10
ATOM     10  C   UNL     1      -3.400   7.667  26.086  0.00  0.00    +0.292 C 
BRANCH  10  12
ATOM     11  N   UNL     1      -4.775   9.701  26.400  0.00  0.00    -0.131 NA
ATOM     12  C   UNL     1      -3.907   8.975  25.633  0.00  0.00    +0.120 A 
ATOM     13  C   UNL     1      -3.647   9.669  24.473  0.00  0.00    +0.137 A 
ATOM     14  N   UNL     1      -4.392  10.810  24.587  0.00  0.00    -0.245 N 
ATOM     15  N   UNL     1      -5.065  10.820  25.752  0.00  0.00    -0.065 NA
BRANCH  14  16
ATOM     16  C   UNL     1      -4.503  11.908  23.623  0.00  0.00    +0.066 C 
ATOM     17  C   UNL     1      -3.756  11.542  22.311  0.00  0.00    +0.034 C 
ATOM     18  C   UNL     1      -3.901  12.663  21.267  0.00  0.00    -0.008 C 
ATOM     19  C   UNL     1      -5.392  12.883  20.964  0.00  0.00    +0.007 C 
ATOM     20  C   UNL     1      -6.138  13.291  22.245  0.00  0.00    -0.008 C 
ATOM     21  C   UNL     1      -5.524  14.584  22.801  0.00  0.00    +0.007 C 
ATOM     22  C   UNL     1      -4.036  14.366  23.115  0.00  0.00    -0.008 C 
ATOM     23  C   UNL     1      -3.300  13.960  21.828  0.00  0.00    +0.007 C 
ATOM     24  C   UNL     1      -5.998  12.171  23.290  0.00  0.00    +0.034 C 
ATOM     25  C   UNL     1      -3.897  13.241  24.156  0.00  0.00    +0.034 C 
ENDBRANCH  14  16
ENDBRANCH  10  12
ENDBRANCH   9  10
ENDBRANCH   5   9
ENDBRANCH   4   7
ENDBRANCH   1   4
BRANCH   1  26
ATOM     26  C   UNL     1      -3.769  11.430  29.578  0.00  0.00    +0.175 C 
BRANCH  26  27
ATOM     27  C   UNL     1      -5.003  12.343  29.597  0.00  0.00    +0.176 C 
ATOM     28  O   UNL     1      -5.190  12.869  28.254  0.00  0.00    -0.332 OA
ATOM     29  C   UNL     1      -6.392  13.685  28.055  0.00  0.00    +0.277 C 
ATOM     30  C   UNL     1      -6.436  14.843  29.082  0.00  0.00    +0.110 C 
ATOM     31  C   UNL     1      -6.209  14.337  30.522  0.00  0.00    +0.143 C 
ATOM     32  C   UNL     1      -4.934  13.498  30.614  0.00  0.00    +0.133 C 
BRANCH  32  33
ATOM     33  N   UNL     1      -4.776  12.949  31.970  0.00  0.00    -0.308 N 
ATOM     34  H   UNL     1      -5.515  12.363  32.331  0.00  0.00    +0.149 HD
ATOM     35  C   UNL     1      -3.719  13.175  32.755  0.00  0.00    +0.210 C 
ATOM     36  C   UNL     1      -2.621  14.094  32.185  0.00  0.00    +0.109 C 
ATOM     37  O   UNL     1      -3.606  12.691  33.881  0.00  0.00    -0.276 OA
ENDBRANCH  32  33
BRANCH  29  38
ATOM     38  C   UNL     1      -7.666  12.825  28.193  0.00  0.00    +0.414 C 
ATOM     39  O   UNL     1      -7.688  11.675  27.755  0.00  0.00    -0.240 OA
ATOM     40  O   UNL     1      -8.670  13.281  28.741  0.00  0.00    -0.240 OA
ENDBRANCH  29  38
BRANCH  31  41
ATOM     41  O   UNL     1      -6.107  15.448  31.413  0.00  0.00    -0.390 OA
ATOM     42  H   UNL     1      -5.241  15.447  31.828  0.00  0.00    +0.210 HD
ENDBRANCH  31  41
BRANCH  29  43
ATOM     43  O   UNL     1      -6.330  14.257  26.723  0.00  0.00    -0.343 OA
ATOM     44  C   UNL     1      -6.887  15.590  26.602  0.00  0.00    +0.198 C 
ENDBRANCH  29  43
ENDBRANCH  26  27
BRANCH  26  45
ATOM     45  O   UNL     1      -3.164  11.438  28.269  0.00  0.00    -0.387 OA
ATOM     46  H   UNL     1      -3.295  10.584  27.851  0.00  0.00    +0.210 HD
ENDBRANCH  26  45
ENDBRANCH   1  26
TORSDOF 14
