REMARK VINA RESULT:    -4.960      8.940     14.169
REMARK INTER + INTRA:         -11.654
REMARK INTER:                  -8.941
REMARK INTRA:                  -2.713
REMARK UNBOUND:                -2.779
REMARK  Name = lig_assembled_39.pdb
REMARK  17 active torsions:
REMARK  status: ('A' for Active; 'I' for Inactive)
REMARK    1  A    between atoms: _2  and  _9
REMARK    2  A    between atoms: _4  and  _19
REMARK    3  A    between atoms: _6  and  _7
REMARK    4  A    between atoms: _6  and  _19
REMARK    5  A    between atoms: _9  and  _10
REMARK    6  A    between atoms: _15  and  _35
REMARK    7  A    between atoms: _17  and  _23
REMARK    8  A    between atoms: _18  and  _22
REMARK    9  A    between atoms: _22  and  _23
REMARK   10  A    between atoms: _25  and  _26
REMARK   11  A    between atoms: _27  and  _28
REMARK   12  A    between atoms: _29  and  _31
REMARK   13  A    between atoms: _31  and  _32
REMARK   14  A    between atoms: _31  and  _33
REMARK   15  A    between atoms: _33  and  _34
REMARK   16  A    between atoms: _33  and  _35
REMARK   17  A    between atoms: _36  and  _38
REMARK                            x       y       z     vdW  Elec       q    Type
REMARK                         _______ _______ _______ _____ _____    ______ ____
ROOT
ATOM      1  C   UNL     1      -3.065   9.423  14.161  0.00  0.00    +0.163 C 
ENDROOT
BRANCH   1   2
ATOM      2  O   UNL     1      -1.754   9.170  13.629  0.00  0.00    -0.388 OA
ATOM      3  H   UNL     1      -1.555   9.817  12.947  0.00  0.00    +0.210 HD
ENDBRANCH   1   2
BRANCH   1   4
ATOM      4  C   UNL     1      -3.585   8.181  14.878  0.00  0.00    +0.141 C 
BRANCH   4   7
ATOM      5  C   UNL     1      -4.950   8.669  16.878  0.00  0.00    +0.401 C 
ATOM      6  O   UNL     1      -6.010   8.746  16.252  0.00  0.00    -0.226 OA
ATOM      7  N   UNL     1      -3.768   8.415  16.315  0.00  0.00    -0.279 N 
ATOM      8  H   UNL     1      -2.953   8.381  16.912  0.00  0.00    +0.152 HD
BRANCH   5   9
ATOM      9  O   UNL     1      -4.965   8.866  18.295  0.00  0.00    -0.444 OA
BRANCH   9  10
ATOM     10  C   UNL     1      -6.083   9.683  18.652  0.00  0.00    +0.292 C 
BRANCH  10  12
ATOM     11  N   UNL     1      -6.523  11.849  19.767  0.00  0.00    -0.131 NA
ATOM     12  C   UNL     1      -5.630  10.886  19.375  0.00  0.00    +0.120 A 
ATOM     13  C   UNL     1      -4.366  11.248  19.786  0.00  0.00    +0.137 A 
ATOM     14  N   UNL     1      -4.570  12.397  20.491  0.00  0.00    -0.247 N 
ATOM     15  N   UNL     1      -5.857  12.787  20.426  0.00  0.00    -0.065 NA
BRANCH  14  16
ATOM     16  C   UNL     1      -3.611  13.131  21.303  0.00  0.00    +0.181 C 
BRANCH  16  17
ATOM     17  C   UNL     1      -3.682  12.781  22.779  0.00  0.00    -0.012 A 
ATOM     18  C   UNL     1      -3.092  11.602  23.275  0.00  0.00    +0.006 A 
ATOM     19  C   UNL     1      -3.156  11.265  24.630  0.00  0.00    +0.000 A 
ATOM     20  C   UNL     1      -3.832  12.089  25.519  0.00  0.00    +0.001 A 
ATOM     21  C   UNL     1      -4.462  13.240  25.050  0.00  0.00    +0.015 A 
ATOM     22  C   UNL     1      -4.399  13.579  23.691  0.00  0.00    +0.023 A 
ATOM     23 BR   UNL     1      -5.346  15.140  23.159  0.00  0.00    -0.050 Br
ENDBRANCH  16  17
ENDBRANCH  14  16
ENDBRANCH  10  12
ENDBRANCH   9  10
ENDBRANCH   5   9
ENDBRANCH   4   7
ENDBRANCH   1   4
BRANCH   1  24
ATOM     24  C   UNL     1      -4.045   9.820  13.044  0.00  0.00    +0.175 C 
BRANCH  24  25
ATOM     25  C   UNL     1      -3.792  11.246  12.533  0.00  0.00    +0.176 C 
ATOM     26  O   UNL     1      -2.524  11.247  11.821  0.00  0.00    -0.332 OA
ATOM     27  C   UNL     1      -2.165  12.509  11.167  0.00  0.00    +0.277 C 
ATOM     28  C   UNL     1      -2.193  13.673  12.187  0.00  0.00    +0.110 C 
ATOM     29  C   UNL     1      -3.510  13.694  12.991  0.00  0.00    +0.143 C 
ATOM     30  C   UNL     1      -3.787  12.331  13.626  0.00  0.00    +0.133 C 
BRANCH  30  31
ATOM     31  N   UNL     1      -5.087  12.339  14.316  0.00  0.00    -0.308 N 
ATOM     32  H   UNL     1      -5.922  12.302  13.749  0.00  0.00    +0.149 HD
ATOM     33  C   UNL     1      -5.234  12.390  15.643  0.00  0.00    +0.210 C 
ATOM     34  C   UNL     1      -3.942  12.471  16.477  0.00  0.00    +0.109 C 
ATOM     35  O   UNL     1      -6.335  12.381  16.194  0.00  0.00    -0.276 OA
ENDBRANCH  30  31
BRANCH  27  36
ATOM     36  C   UNL     1      -3.132  12.817  10.005  0.00  0.00    +0.414 C 
ATOM     37  O   UNL     1      -3.542  11.910   9.282  0.00  0.00    -0.240 OA
ATOM     38  O   UNL     1      -3.502  13.972   9.791  0.00  0.00    -0.240 OA
ENDBRANCH  27  36
BRANCH  27  39
ATOM     39  O   UNL     1      -0.813  12.381  10.657  0.00  0.00    -0.343 OA
ATOM     40  C   UNL     1       0.037  13.534  10.879  0.00  0.00    +0.198 C 
ENDBRANCH  27  39
BRANCH  29  41
ATOM     41  O   UNL     1      -3.432  14.684  14.018  0.00  0.00    -0.390 OA
ATOM     42  H   UNL     1      -3.230  15.537  13.627  0.00  0.00    +0.210 HD
ENDBRANCH  29  41
ENDBRANCH  24  25
BRANCH  24  43
ATOM     43  O   UNL     1      -5.404   9.693  13.508  0.00  0.00    -0.387 OA
ATOM     44  H   UNL     1      -5.805  10.563  13.568  0.00  0.00    +0.210 HD
ENDBRANCH  24  43
ENDBRANCH   1  24
TORSDOF 15
