REMARK VINA RESULT:    -5.027      3.344      7.668
REMARK INTER + INTRA:         -11.297
REMARK INTER:                  -8.155
REMARK INTRA:                  -3.142
REMARK UNBOUND:                -2.303
REMARK  Name = lig_assembled_4.pdb
REMARK  19 active torsions:
REMARK  status: ('A' for Active; 'I' for Inactive)
REMARK    1  A    between atoms: _2  and  _9
REMARK    2  A    between atoms: _4  and  _21
REMARK    3  A    between atoms: _6  and  _7
REMARK    4  A    between atoms: _6  and  _21
REMARK    5  A    between atoms: _10  and  _11
REMARK    6  A    between atoms: _11  and  _12
REMARK    7  A    between atoms: _11  and  _13
REMARK    8  A    between atoms: _17  and  _37
REMARK    9  A    between atoms: _19  and  _25
REMARK   10  A    between atoms: _20  and  _24
REMARK   11  A    between atoms: _24  and  _25
REMARK   12  A    between atoms: _27  and  _28
REMARK   13  A    between atoms: _29  and  _30
REMARK   14  A    between atoms: _31  and  _33
REMARK   15  A    between atoms: _33  and  _34
REMARK   16  A    between atoms: _33  and  _35
REMARK   17  A    between atoms: _35  and  _36
REMARK   18  A    between atoms: _35  and  _37
REMARK   19  A    between atoms: _38  and  _40
REMARK                            x       y       z     vdW  Elec       q    Type
REMARK                         _______ _______ _______ _____ _____    ______ ____
ROOT
ATOM      1  C   UNL     1      -3.156   9.547  30.300  0.00  0.00    +0.163 C 
ENDROOT
BRANCH   1   2
ATOM      2  O   UNL     1      -2.152  10.270  31.031  0.00  0.00    -0.388 OA
ATOM      3  H   UNL     1      -2.500  11.125  31.294  0.00  0.00    +0.210 HD
ENDBRANCH   1   2
BRANCH   1   4
ATOM      4  C   UNL     1      -2.495   8.590  29.313  0.00  0.00    +0.141 C 
BRANCH   4   7
ATOM      5  C   UNL     1      -3.043   8.005  26.976  0.00  0.00    +0.401 C 
ATOM      6  O   UNL     1      -1.891   8.169  26.566  0.00  0.00    -0.226 OA
ATOM      7  N   UNL     1      -3.416   8.185  28.244  0.00  0.00    -0.279 N 
ATOM      8  H   UNL     1      -4.386   8.035  28.481  0.00  0.00    +0.152 HD
BRANCH   5   9
ATOM      9  O   UNL     1      -4.057   7.601  26.053  0.00  0.00    -0.444 OA
BRANCH   9  10
ATOM     10  C   UNL     1      -5.227   8.399  26.249  0.00  0.00    +0.292 C 
BRANCH  10  12
ATOM     11  N   UNL     1      -6.621   9.920  24.895  0.00  0.00    -0.131 NA
ATOM     12  C   UNL     1      -5.416   9.333  25.124  0.00  0.00    +0.121 A 
ATOM     13  C   UNL     1      -4.527   9.732  24.151  0.00  0.00    +0.143 A 
ATOM     14  N   UNL     1      -5.284  10.472  23.262  0.00  0.00    -0.219 N 
ATOM     15  N   UNL     1      -6.522  10.629  23.778  0.00  0.00    -0.060 NA
BRANCH  14  16
ATOM     16  C   UNL     1      -4.879  10.982  21.992  0.00  0.00    +0.070 A 
ATOM     17  C   UNL     1      -4.373  12.297  21.804  0.00  0.00    -0.019 A 
ATOM     18  C   UNL     1      -4.039  12.684  20.486  0.00  0.00    +0.006 A 
ATOM     19  C   UNL     1      -4.205  11.828  19.397  0.00  0.00    +0.000 A 
ATOM     20  C   UNL     1      -4.691  10.544  19.594  0.00  0.00    +0.002 A 
ATOM     21  C   UNL     1      -5.028  10.124  20.879  0.00  0.00    +0.028 A 
BRANCH  17  22
ATOM     22  C   UNL     1      -4.180  13.316  22.929  0.00  0.00    +0.015 C 
ATOM     23  C   UNL     1      -4.173  14.786  22.482  0.00  0.00    +0.012 C 
ATOM     24  C   UNL     1      -2.897  13.003  23.702  0.00  0.00    +0.012 C 
ENDBRANCH  17  22
ENDBRANCH  14  16
ENDBRANCH  10  12
ENDBRANCH   9  10
ENDBRANCH   5   9
ENDBRANCH   4   7
ENDBRANCH   1   4
BRANCH   1  25
ATOM     25  C   UNL     1      -4.083  10.511  29.539  0.00  0.00    +0.175 C 
BRANCH  25  26
ATOM     26  C   UNL     1      -4.067  11.924  30.141  0.00  0.00    +0.176 C 
ATOM     27  O   UNL     1      -4.268  11.801  31.576  0.00  0.00    -0.332 OA
ATOM     28  C   UNL     1      -4.177  13.050  32.338  0.00  0.00    +0.277 C 
ATOM     29  C   UNL     1      -5.151  14.107  31.761  0.00  0.00    +0.110 C 
ATOM     30  C   UNL     1      -4.996  14.250  30.232  0.00  0.00    +0.143 C 
ATOM     31  C   UNL     1      -5.104  12.891  29.541  0.00  0.00    +0.133 C 
BRANCH  31  32
ATOM     32  N   UNL     1      -4.869  13.029  28.095  0.00  0.00    -0.308 N 
ATOM     33  H   UNL     1      -3.945  13.302  27.791  0.00  0.00    +0.149 HD
ATOM     34  C   UNL     1      -5.797  12.817  27.157  0.00  0.00    +0.210 C 
ATOM     35  C   UNL     1      -7.202  12.428  27.654  0.00  0.00    +0.109 C 
ATOM     36  O   UNL     1      -5.567  12.926  25.952  0.00  0.00    -0.276 OA
ENDBRANCH  31  32
BRANCH  28  37
ATOM     37  C   UNL     1      -2.738  13.605  32.309  0.00  0.00    +0.414 C 
ATOM     38  O   UNL     1      -1.777  12.836  32.304  0.00  0.00    -0.240 OA
ATOM     39  O   UNL     1      -2.537  14.820  32.291  0.00  0.00    -0.240 OA
ENDBRANCH  28  37
BRANCH  30  40
ATOM     40  O   UNL     1      -6.010  15.119  29.725  0.00  0.00    -0.390 OA
ATOM     41  H   UNL     1      -5.934  15.177  28.770  0.00  0.00    +0.210 HD
ENDBRANCH  30  40
BRANCH  28  42
ATOM     42  O   UNL     1      -4.565  12.770  33.707  0.00  0.00    -0.343 OA
ATOM     43  C   UNL     1      -5.565  11.730  33.860  0.00  0.00    +0.198 C 
ENDBRANCH  28  42
ENDBRANCH  25  26
BRANCH  25  44
ATOM     44  O   UNL     1      -5.429   9.994  29.520  0.00  0.00    -0.387 OA
ATOM     45  H   UNL     1      -5.426   9.107  29.153  0.00  0.00    +0.210 HD
ENDBRANCH  25  44
ENDBRANCH   1  25
TORSDOF 15
