REMARK VINA RESULT:    -4.893      2.329      4.702
REMARK INTER + INTRA:         -12.936
REMARK INTER:                  -9.767
REMARK INTRA:                  -3.170
REMARK UNBOUND:                -3.181
REMARK  Name = lig_assembled_76.pdb
REMARK  21 active torsions:
REMARK  status: ('A' for Active; 'I' for Inactive)
REMARK    1  A    between atoms: _2  and  _9
REMARK    2  A    between atoms: _4  and  _23
REMARK    3  A    between atoms: _6  and  _7
REMARK    4  A    between atoms: _6  and  _23
REMARK    5  A    between atoms: _9  and  _10
REMARK    6  A    between atoms: _10  and  _11
REMARK    7  A    between atoms: _10  and  _18
REMARK    8  A    between atoms: _11  and  _12
REMARK    9  A    between atoms: _12  and  _13
REMARK   10  A    between atoms: _19  and  _39
REMARK   11  A    between atoms: _21  and  _27
REMARK   12  A    between atoms: _22  and  _26
REMARK   13  A    between atoms: _26  and  _27
REMARK   14  A    between atoms: _29  and  _30
REMARK   15  A    between atoms: _31  and  _32
REMARK   16  A    between atoms: _33  and  _35
REMARK   17  A    between atoms: _35  and  _36
REMARK   18  A    between atoms: _35  and  _37
REMARK   19  A    between atoms: _37  and  _38
REMARK   20  A    between atoms: _37  and  _39
REMARK   21  A    between atoms: _40  and  _42
REMARK                            x       y       z     vdW  Elec       q    Type
REMARK                         _______ _______ _______ _____ _____    ______ ____
ROOT
ATOM      1  C   UNL     1      -1.972  10.255  27.006  0.00  0.00    +0.141 C 
ENDROOT
BRANCH   1   4
ATOM      2  C   UNL     1      -1.898   8.007  28.030  0.00  0.00    +0.401 C 
ATOM      3  O   UNL     1      -2.003   7.411  26.956  0.00  0.00    -0.226 OA
ATOM      4  N   UNL     1      -1.882   9.335  28.147  0.00  0.00    -0.279 N 
ATOM      5  H   UNL     1      -1.802   9.732  29.073  0.00  0.00    +0.152 HD
BRANCH   2   6
ATOM      6  O   UNL     1      -1.791   7.249  29.238  0.00  0.00    -0.444 OA
BRANCH   6   7
ATOM      7  C   UNL     1      -3.094   7.049  29.793  0.00  0.00    +0.292 C 
BRANCH   7   9
ATOM      8  N   UNL     1      -4.421   9.141  29.887  0.00  0.00    -0.131 NA
ATOM      9  C   UNL     1      -3.550   8.266  30.484  0.00  0.00    +0.120 A 
ATOM     10  C   UNL     1      -3.223   8.739  31.736  0.00  0.00    +0.137 A 
ATOM     11  N   UNL     1      -3.928   9.897  31.840  0.00  0.00    -0.249 N 
ATOM     12  N   UNL     1      -4.639  10.144  30.728  0.00  0.00    -0.065 NA
BRANCH  11  13
ATOM     13  C   UNL     1      -3.870  10.875  32.903  0.00  0.00    +0.176 C 
BRANCH  13  14
ATOM     14  C   UNL     1      -2.718  11.871  32.736  0.00  0.00    +0.136 C 
BRANCH  14  15
ATOM     15  O   UNL     1      -2.117  11.719  31.442  0.00  0.00    -0.390 OA
ATOM     16  H   UNL     1      -1.307  12.256  31.402  0.00  0.00    +0.210 HD
ENDBRANCH  14  15
BRANCH  14  17
ATOM     17  C   UNL     1      -3.181  13.332  32.859  0.00  0.00    +0.038 C 
BRANCH  17  18
ATOM     18  C   UNL     1      -2.705  14.221  31.711  0.00  0.00    +0.038 C 
BRANCH  18  19
ATOM     19  C   UNL     1      -3.852  14.889  30.997  0.00  0.00    -0.047 A 
ATOM     20  C   UNL     1      -3.991  16.284  31.034  0.00  0.00    +0.003 A 
ATOM     21  C   UNL     1      -5.041  16.908  30.360  0.00  0.00    +0.000 A 
ATOM     22  C   UNL     1      -5.964  16.144  29.649  0.00  0.00    +0.000 A 
ATOM     23  C   UNL     1      -5.840  14.756  29.616  0.00  0.00    +0.000 A 
ATOM     24  C   UNL     1      -4.791  14.130  30.291  0.00  0.00    +0.003 A 
ENDBRANCH  18  19
ENDBRANCH  17  18
ENDBRANCH  14  17
ENDBRANCH  13  14
ENDBRANCH  11  13
ENDBRANCH   7   9
ENDBRANCH   6   7
ENDBRANCH   2   6
ENDBRANCH   1   4
BRANCH   1  25
ATOM     25  C   UNL     1      -3.358  10.881  26.889  0.00  0.00    +0.163 C 
BRANCH  25  26
ATOM     26  O   UNL     1      -3.710  11.529  28.122  0.00  0.00    -0.388 OA
ATOM     27  H   UNL     1      -3.588  12.477  28.033  0.00  0.00    +0.210 HD
ENDBRANCH  25  26
BRANCH  25  28
ATOM     28  C   UNL     1      -3.373  11.880  25.719  0.00  0.00    +0.175 C 
BRANCH  28  29
ATOM     29  C   UNL     1      -4.254  11.396  24.558  0.00  0.00    +0.176 C 
ATOM     30  O   UNL     1      -3.521  11.610  23.321  0.00  0.00    -0.332 OA
ATOM     31  C   UNL     1      -4.168  11.107  22.105  0.00  0.00    +0.277 C 
ATOM     32  C   UNL     1      -5.597  11.687  21.973  0.00  0.00    +0.110 C 
ATOM     33  C   UNL     1      -6.406  11.511  23.276  0.00  0.00    +0.143 C 
ATOM     34  C   UNL     1      -5.639  12.066  24.477  0.00  0.00    +0.133 C 
BRANCH  34  35
ATOM     35  N   UNL     1      -6.380  11.814  25.722  0.00  0.00    -0.308 N 
ATOM     36  H   UNL     1      -6.541  10.853  25.990  0.00  0.00    +0.149 HD
ATOM     37  C   UNL     1      -6.854  12.773  26.523  0.00  0.00    +0.210 C 
ATOM     38  C   UNL     1      -6.616  14.227  26.074  0.00  0.00    +0.109 C 
ATOM     39  O   UNL     1      -7.459  12.532  27.568  0.00  0.00    -0.276 OA
ENDBRANCH  34  35
BRANCH  31  40
ATOM     40  C   UNL     1      -4.236   9.566  22.119  0.00  0.00    +0.414 C 
ATOM     41  O   UNL     1      -3.279   8.906  22.524  0.00  0.00    -0.240 OA
ATOM     42  O   UNL     1      -5.247   8.982  21.727  0.00  0.00    -0.240 OA
ENDBRANCH  31  40
BRANCH  33  43
ATOM     43  O   UNL     1      -7.657  12.191  23.162  0.00  0.00    -0.390 OA
ATOM     44  H   UNL     1      -7.778  12.769  23.919  0.00  0.00    +0.210 HD
ENDBRANCH  33  43
BRANCH  31  45
ATOM     45  O   UNL     1      -3.387  11.551  20.965  0.00  0.00    -0.343 OA
ATOM     46  C   UNL     1      -4.140  11.722  19.737  0.00  0.00    +0.198 C 
ENDBRANCH  31  45
ENDBRANCH  28  29
BRANCH  28  47
ATOM     47  O   UNL     1      -2.030  12.122  25.255  0.00  0.00    -0.387 OA
ATOM     48  H   UNL     1      -1.447  12.238  26.009  0.00  0.00    +0.210 HD
ENDBRANCH  28  47
ENDBRANCH  25  28
ENDBRANCH   1  25
TORSDOF 19
