REMARK VINA RESULT:    -4.226      3.086      8.942
REMARK INTER + INTRA:         -11.884
REMARK INTER:                  -7.177
REMARK INTRA:                  -4.707
REMARK UNBOUND:                -3.581
REMARK  Name = lig_assembled_31.pdb
REMARK  20 active torsions:
REMARK  status: ('A' for Active; 'I' for Inactive)
REMARK    1  A    between atoms: _2  and  _11
REMARK    2  A    between atoms: _3  and  _12
REMARK    3  A    between atoms: _4  and  _14
REMARK    4  A    between atoms: _6  and  _24
REMARK    5  A    between atoms: _8  and  _9
REMARK    6  A    between atoms: _8  and  _24
REMARK    7  A    between atoms: _11  and  _12
REMARK    8  A    between atoms: _14  and  _15
REMARK    9  A    between atoms: _20  and  _40
REMARK   10  A    between atoms: _22  and  _28
REMARK   11  A    between atoms: _23  and  _27
REMARK   12  A    between atoms: _27  and  _28
REMARK   13  A    between atoms: _30  and  _31
REMARK   14  A    between atoms: _32  and  _33
REMARK   15  A    between atoms: _34  and  _36
REMARK   16  A    between atoms: _36  and  _37
REMARK   17  A    between atoms: _36  and  _38
REMARK   18  A    between atoms: _38  and  _39
REMARK   19  A    between atoms: _38  and  _40
REMARK   20  A    between atoms: _41  and  _43
REMARK                            x       y       z     vdW  Elec       q    Type
REMARK                         _______ _______ _______ _____ _____    ______ ____
ROOT
ATOM      1  C   UNL     1      -4.521  14.975  31.379  0.00  0.00    +0.401 C 
ATOM      2  O   UNL     1      -3.341  14.637  31.489  0.00  0.00    -0.226 OA
ATOM      3  N   UNL     1      -5.534  14.116  31.249  0.00  0.00    -0.279 N 
ATOM      4  H   UNL     1      -6.469  14.490  31.175  0.00  0.00    +0.152 HD
ENDROOT
BRANCH   1   5
ATOM      5  O   UNL     1      -4.850  16.366  31.393  0.00  0.00    -0.444 OA
BRANCH   5   6
ATOM      6  C   UNL     1      -6.257  16.528  31.196  0.00  0.00    +0.292 C 
BRANCH   6   8
ATOM      7  N   UNL     1      -7.234  15.510  29.162  0.00  0.00    -0.131 NA
ATOM      8  C   UNL     1      -6.576  16.553  29.755  0.00  0.00    +0.120 A 
ATOM      9  C   UNL     1      -6.313  17.516  28.806  0.00  0.00    +0.137 A 
ATOM     10  N   UNL     1      -6.827  16.992  27.657  0.00  0.00    -0.250 N 
ATOM     11  N   UNL     1      -7.385  15.790  27.874  0.00  0.00    -0.065 NA
BRANCH  10  12
ATOM     12  C   UNL     1      -6.822  17.570  26.329  0.00  0.00    +0.164 C 
BRANCH  12  13
ATOM     13  C   UNL     1      -7.380  16.600  25.300  0.00  0.00    +0.129 C 
BRANCH  13  14
ATOM     14  N   UNL     1      -6.526  15.455  25.015  0.00  0.00    -0.298 N 
ATOM     15  H   UNL     1      -6.258  14.816  25.750  0.00  0.00    +0.150 HD
ATOM     16  C   UNL     1      -5.755  15.484  23.883  0.00  0.00    +0.300 C 
ATOM     17  O   UNL     1      -5.829  16.386  23.053  0.00  0.00    -0.253 OA
ATOM     18  N   UNL     1      -4.921  14.418  23.743  0.00  0.00    -0.292 N 
ATOM     19  H   UNL     1      -4.831  13.698  24.446  0.00  0.00    +0.151 HD
BRANCH  18  20
ATOM     20  C   UNL     1      -4.071  14.354  22.577  0.00  0.00    +0.180 C 
BRANCH  20  21
ATOM     21  C   UNL     1      -4.269  13.123  21.771  0.00  0.00    +0.122 A 
ATOM     22  O   UNL     1      -3.199  12.307  21.531  0.00  0.00    -0.466 OA
ATOM     23  C   UNL     1      -3.659  11.268  20.780  0.00  0.00    +0.195 A 
ATOM     24  C   UNL     1      -5.005  11.404  20.531  0.00  0.00    +0.041 A 
ATOM     25  C   UNL     1      -5.401  12.602  21.170  0.00  0.00    +0.046 A 
ENDBRANCH  20  21
ENDBRANCH  18  20
ENDBRANCH  13  14
ENDBRANCH  12  13
ENDBRANCH  10  12
ENDBRANCH   6   8
ENDBRANCH   5   6
ENDBRANCH   1   5
BRANCH   3  26
ATOM     26  C   UNL     1      -5.365  12.658  31.206  0.00  0.00    +0.141 C 
BRANCH  26  27
ATOM     27  C   UNL     1      -5.433  12.119  29.782  0.00  0.00    +0.163 C 
BRANCH  27  28
ATOM     28  O   UNL     1      -6.476  12.787  29.053  0.00  0.00    -0.388 OA
ATOM     29  H   UNL     1      -7.098  13.180  29.670  0.00  0.00    +0.210 HD
ENDBRANCH  27  28
BRANCH  27  30
ATOM     30  C   UNL     1      -4.071  12.311  29.093  0.00  0.00    +0.175 C 
BRANCH  30  31
ATOM     31  C   UNL     1      -3.894  11.373  27.890  0.00  0.00    +0.176 C 
ATOM     32  O   UNL     1      -4.716  11.880  26.803  0.00  0.00    -0.332 OA
ATOM     33  C   UNL     1      -4.593  11.166  25.529  0.00  0.00    +0.277 C 
ATOM     34  C   UNL     1      -4.861   9.654  25.728  0.00  0.00    +0.110 C 
ATOM     35  C   UNL     1      -4.032   9.077  26.894  0.00  0.00    +0.143 C 
ATOM     36  C   UNL     1      -4.233   9.897  28.169  0.00  0.00    +0.133 C 
BRANCH  36  37
ATOM     37  N   UNL     1      -3.372   9.391  29.249  0.00  0.00    -0.308 N 
ATOM     38  H   UNL     1      -2.375   9.531  29.163  0.00  0.00    +0.149 HD
ATOM     39  C   UNL     1      -3.821   8.757  30.335  0.00  0.00    +0.210 C 
ATOM     40  C   UNL     1      -5.343   8.535  30.424  0.00  0.00    +0.109 C 
ATOM     41  O   UNL     1      -3.078   8.356  31.232  0.00  0.00    -0.276 OA
ENDBRANCH  36  37
BRANCH  33  42
ATOM     42  C   UNL     1      -3.187  11.365  24.924  0.00  0.00    +0.414 C 
ATOM     43  O   UNL     1      -2.641  10.450  24.310  0.00  0.00    -0.240 OA
ATOM     44  O   UNL     1      -2.600  12.440  25.051  0.00  0.00    -0.240 OA
ENDBRANCH  33  42
BRANCH  35  45
ATOM     45  O   UNL     1      -4.420   7.724  27.139  0.00  0.00    -0.390 OA
ATOM     46  H   UNL     1      -4.802   7.351  26.341  0.00  0.00    +0.210 HD
ENDBRANCH  35  45
BRANCH  33  47
ATOM     47  O   UNL     1      -5.594  11.692  24.620  0.00  0.00    -0.343 OA
ATOM     48  C   UNL     1      -6.933  11.779  25.169  0.00  0.00    +0.198 C 
ENDBRANCH  33  47
ENDBRANCH  30  31
BRANCH  30  49
ATOM     49  O   UNL     1      -3.003  12.111  30.041  0.00  0.00    -0.387 OA
ATOM     50  H   UNL     1      -2.192  12.488  29.693  0.00  0.00    +0.210 HD
ENDBRANCH  30  49
ENDBRANCH  27  30
ENDBRANCH  26  27
ENDBRANCH   3  26
TORSDOF 18
