REMARK VINA RESULT:    -4.092      2.735      4.008
REMARK INTER + INTRA:         -11.678
REMARK INTER:                  -7.316
REMARK INTRA:                  -4.362
REMARK UNBOUND:                -3.997
REMARK  Name = lig_assembled_68.pdb
REMARK  19 active torsions:
REMARK  status: ('A' for Active; 'I' for Inactive)
REMARK    1  A    between atoms: _2  and  _9
REMARK    2  A    between atoms: _4  and  _21
REMARK    3  A    between atoms: _6  and  _7
REMARK    4  A    between atoms: _6  and  _21
REMARK    5  A    between atoms: _9  and  _10
REMARK    6  A    between atoms: _10  and  _11
REMARK    7  A    between atoms: _10  and  _16
REMARK    8  A    between atoms: _17  and  _37
REMARK    9  A    between atoms: _19  and  _25
REMARK   10  A    between atoms: _20  and  _24
REMARK   11  A    between atoms: _24  and  _25
REMARK   12  A    between atoms: _27  and  _28
REMARK   13  A    between atoms: _29  and  _30
REMARK   14  A    between atoms: _31  and  _33
REMARK   15  A    between atoms: _33  and  _34
REMARK   16  A    between atoms: _33  and  _35
REMARK   17  A    between atoms: _35  and  _36
REMARK   18  A    between atoms: _35  and  _37
REMARK   19  A    between atoms: _38  and  _40
REMARK                            x       y       z     vdW  Elec       q    Type
REMARK                         _______ _______ _______ _____ _____    ______ ____
ROOT
ATOM      1  C   UNL     1      -3.094  10.867  29.275  0.00  0.00    +0.163 C 
ENDROOT
BRANCH   1   2
ATOM      2  O   UNL     1      -2.267  10.160  28.337  0.00  0.00    -0.388 OA
ATOM      3  H   UNL     1      -2.384  10.534  27.460  0.00  0.00    +0.210 HD
ENDBRANCH   1   2
BRANCH   1   4
ATOM      4  C   UNL     1      -4.545  10.957  28.772  0.00  0.00    +0.175 C 
BRANCH   4   5
ATOM      5  C   UNL     1      -4.634  10.845  27.242  0.00  0.00    +0.176 C 
ATOM      6  O   UNL     1      -3.844  11.923  26.669  0.00  0.00    -0.332 OA
ATOM      7  C   UNL     1      -3.726  11.914  25.208  0.00  0.00    +0.277 C 
ATOM      8  C   UNL     1      -5.128  11.885  24.551  0.00  0.00    +0.110 C 
ATOM      9  C   UNL     1      -6.015  10.775  25.151  0.00  0.00    +0.143 C 
ATOM     10  C   UNL     1      -6.066  10.877  26.676  0.00  0.00    +0.133 C 
BRANCH  10  11
ATOM     11  N   UNL     1      -6.843   9.763  27.242  0.00  0.00    -0.308 N 
ATOM     12  H   UNL     1      -6.509   8.823  27.077  0.00  0.00    +0.149 HD
ATOM     13  C   UNL     1      -7.959   9.912  27.960  0.00  0.00    +0.210 C 
ATOM     14  C   UNL     1      -8.455  11.355  28.172  0.00  0.00    +0.109 C 
ATOM     15  O   UNL     1      -8.582   8.961  28.434  0.00  0.00    -0.276 OA
ENDBRANCH  10  11
BRANCH   7  16
ATOM     16  C   UNL     1      -2.909  10.694  24.733  0.00  0.00    +0.414 C 
ATOM     17  O   UNL     1      -3.163  10.160  23.654  0.00  0.00    -0.240 OA
ATOM     18  O   UNL     1      -1.998  10.244  25.428  0.00  0.00    -0.240 OA
ENDBRANCH   7  16
BRANCH   7  19
ATOM     19  O   UNL     1      -3.057  13.136  24.804  0.00  0.00    -0.343 OA
ATOM     20  C   UNL     1      -3.483  13.675  23.527  0.00  0.00    +0.198 C 
ENDBRANCH   7  19
BRANCH   9  21
ATOM     21  O   UNL     1      -7.340  10.881  24.629  0.00  0.00    -0.390 OA
ATOM     22  H   UNL     1      -7.610  11.802  24.626  0.00  0.00    +0.210 HD
ENDBRANCH   9  21
ENDBRANCH   4   5
BRANCH   4  23
ATOM     23  O   UNL     1      -5.150  12.188  29.216  0.00  0.00    -0.387 OA
ATOM     24  H   UNL     1      -4.464  12.835  29.396  0.00  0.00    +0.210 HD
ENDBRANCH   4  23
ENDBRANCH   1   4
BRANCH   1  25
ATOM     25  C   UNL     1      -3.067  10.164  30.628  0.00  0.00    +0.141 C 
BRANCH  25  28
ATOM     26  C   UNL     1      -2.997  11.868  32.417  0.00  0.00    +0.401 C 
ATOM     27  O   UNL     1      -1.789  12.082  32.295  0.00  0.00    -0.226 OA
ATOM     28  N   UNL     1      -3.675  10.984  31.683  0.00  0.00    -0.279 N 
ATOM     29  H   UNL     1      -4.663  10.872  31.864  0.00  0.00    +0.152 HD
BRANCH  26  30
ATOM     30  O   UNL     1      -3.736  12.596  33.401  0.00  0.00    -0.444 OA
BRANCH  30  31
ATOM     31  C   UNL     1      -3.675  13.994  33.106  0.00  0.00    +0.292 C 
BRANCH  31  33
ATOM     32  N   UNL     1      -5.838  13.621  31.953  0.00  0.00    -0.131 NA
ATOM     33  C   UNL     1      -4.688  14.354  32.098  0.00  0.00    +0.120 A 
ATOM     34  C   UNL     1      -4.692  15.380  31.183  0.00  0.00    +0.137 A 
ATOM     35  N   UNL     1      -5.873  15.225  30.518  0.00  0.00    -0.249 N 
ATOM     36  N   UNL     1      -6.555  14.160  30.975  0.00  0.00    -0.065 NA
BRANCH  35  37
ATOM     37  C   UNL     1      -6.359  15.983  29.384  0.00  0.00    +0.181 C 
BRANCH  37  38
ATOM     38  C   UNL     1      -6.996  15.084  28.318  0.00  0.00    +0.166 C 
BRANCH  38  39
ATOM     39  C   UNL     1      -6.912  15.634  26.901  0.00  0.00    -0.017 A 
ATOM     40  C   UNL     1      -6.991  17.025  26.707  0.00  0.00    +0.006 A 
ATOM     41  C   UNL     1      -6.891  17.575  25.427  0.00  0.00    +0.000 A 
ATOM     42  C   UNL     1      -6.705  16.747  24.324  0.00  0.00    +0.000 A 
ATOM     43  C   UNL     1      -6.606  15.372  24.499  0.00  0.00    +0.000 A 
ATOM     44  C   UNL     1      -6.704  14.818  25.779  0.00  0.00    +0.006 A 
ENDBRANCH  38  39
BRANCH  38  45
ATOM     45  O   UNL     1      -8.380  14.894  28.634  0.00  0.00    -0.385 OA
ATOM     46  H   UNL     1      -8.631  15.549  29.305  0.00  0.00    +0.210 HD
ENDBRANCH  38  45
ENDBRANCH  37  38
ENDBRANCH  35  37
ENDBRANCH  31  33
ENDBRANCH  30  31
ENDBRANCH  26  30
ENDBRANCH  25  28
ENDBRANCH   1  25
TORSDOF 17
