REMARK VINA RESULT:    -5.407      0.000      0.000
REMARK INTER + INTRA:         -12.348
REMARK INTER:                  -8.841
REMARK INTRA:                  -3.507
REMARK UNBOUND:                -2.989
REMARK  Name = lig_assembled_51.pdb
REMARK  16 active torsions:
REMARK  status: ('A' for Active; 'I' for Inactive)
REMARK    1  A    between atoms: _2  and  _9
REMARK    2  A    between atoms: _4  and  _22
REMARK    3  A    between atoms: _6  and  _7
REMARK    4  A    between atoms: _6  and  _22
REMARK    5  A    between atoms: _18  and  _38
REMARK    6  A    between atoms: _20  and  _26
REMARK    7  A    between atoms: _21  and  _25
REMARK    8  A    between atoms: _25  and  _26
REMARK    9  A    between atoms: _28  and  _29
REMARK   10  A    between atoms: _30  and  _31
REMARK   11  A    between atoms: _32  and  _34
REMARK   12  A    between atoms: _34  and  _35
REMARK   13  A    between atoms: _34  and  _36
REMARK   14  A    between atoms: _36  and  _37
REMARK   15  A    between atoms: _36  and  _38
REMARK   16  A    between atoms: _39  and  _41
REMARK                            x       y       z     vdW  Elec       q    Type
REMARK                         _______ _______ _______ _____ _____    ______ ____
ROOT
ATOM      1  C   UNL     1      -2.947  11.535  23.639  0.00  0.00    +0.163 C 
ENDROOT
BRANCH   1   2
ATOM      2  O   UNL     1      -2.295  11.848  24.881  0.00  0.00    -0.388 OA
ATOM      3  H   UNL     1      -1.378  11.562  24.843  0.00  0.00    +0.210 HD
ENDBRANCH   1   2
BRANCH   1   4
ATOM      4  C   UNL     1      -3.716  12.751  23.133  0.00  0.00    +0.141 C 
BRANCH   4   7
ATOM      5  C   UNL     1      -5.603  13.832  24.305  0.00  0.00    +0.401 C 
ATOM      6  O   UNL     1      -6.436  13.518  23.451  0.00  0.00    -0.226 OA
ATOM      7  N   UNL     1      -4.308  13.521  24.233  0.00  0.00    -0.279 N 
ATOM      8  H   UNL     1      -3.701  13.832  24.978  0.00  0.00    +0.152 HD
BRANCH   5   9
ATOM      9  O   UNL     1      -6.028  14.580  25.447  0.00  0.00    -0.444 OA
BRANCH   9  10
ATOM     10  C   UNL     1      -6.696  13.712  26.366  0.00  0.00    +0.292 C 
BRANCH  10  12
ATOM     11  N   UNL     1      -4.744  12.454  27.222  0.00  0.00    -0.131 NA
ATOM     12  C   UNL     1      -5.783  13.312  27.452  0.00  0.00    +0.120 A 
ATOM     13  C   UNL     1      -5.781  13.672  28.780  0.00  0.00    +0.137 A 
ATOM     14  N   UNL     1      -4.717  12.997  29.312  0.00  0.00    -0.245 N 
ATOM     15  N   UNL     1      -4.099  12.268  28.365  0.00  0.00    -0.065 NA
BRANCH  14  16
ATOM     16  C   UNL     1      -4.257  13.003  30.703  0.00  0.00    +0.066 C 
ATOM     17  C   UNL     1      -3.356  11.766  30.971  0.00  0.00    +0.034 C 
ATOM     18  C   UNL     1      -2.823  11.779  32.415  0.00  0.00    -0.008 C 
ATOM     19  C   UNL     1      -2.010  13.064  32.643  0.00  0.00    +0.007 C 
ATOM     20  C   UNL     1      -2.900  14.298  32.425  0.00  0.00    -0.008 C 
ATOM     21  C   UNL     1      -4.083  14.251  33.404  0.00  0.00    +0.007 C 
ATOM     22  C   UNL     1      -4.904  12.973  33.172  0.00  0.00    -0.008 C 
ATOM     23  C   UNL     1      -4.006  11.746  33.393  0.00  0.00    +0.007 C 
ATOM     24  C   UNL     1      -3.433  14.291  30.983  0.00  0.00    +0.034 C 
ATOM     25  C   UNL     1      -5.431  12.963  31.727  0.00  0.00    +0.034 C 
ENDBRANCH  14  16
ENDBRANCH  10  12
ENDBRANCH   9  10
ENDBRANCH   5   9
ENDBRANCH   4   7
ENDBRANCH   1   4
BRANCH   1  26
ATOM     26  C   UNL     1      -3.913  10.349  23.808  0.00  0.00    +0.175 C 
BRANCH  26  27
ATOM     27  C   UNL     1      -3.877   9.774  25.232  0.00  0.00    +0.176 C 
ATOM     28  O   UNL     1      -2.861   8.734  25.268  0.00  0.00    -0.332 OA
ATOM     29  C   UNL     1      -2.611   8.138  26.584  0.00  0.00    +0.277 C 
ATOM     30  C   UNL     1      -3.929   7.604  27.196  0.00  0.00    +0.110 C 
ATOM     31  C   UNL     1      -5.049   8.665  27.150  0.00  0.00    +0.143 C 
ATOM     32  C   UNL     1      -5.222   9.219  25.736  0.00  0.00    +0.133 C 
BRANCH  32  33
ATOM     33  N   UNL     1      -6.231  10.290  25.722  0.00  0.00    -0.308 N 
ATOM     34  H   UNL     1      -6.045  11.120  26.267  0.00  0.00    +0.149 HD
ATOM     35  C   UNL     1      -7.377  10.236  25.038  0.00  0.00    +0.210 C 
ATOM     36  C   UNL     1      -7.643   8.946  24.239  0.00  0.00    +0.109 C 
ATOM     37  O   UNL     1      -8.197  11.154  25.033  0.00  0.00    -0.276 OA
ENDBRANCH  32  33
BRANCH  29  38
ATOM     38  C   UNL     1      -1.980   9.171  27.541  0.00  0.00    +0.414 C 
ATOM     39  O   UNL     1      -2.182   9.099  28.752  0.00  0.00    -0.240 OA
ATOM     40  O   UNL     1      -1.269  10.076  27.101  0.00  0.00    -0.240 OA
ENDBRANCH  29  38
BRANCH  31  41
ATOM     41  O   UNL     1      -6.280   8.084  27.582  0.00  0.00    -0.390 OA
ATOM     42  H   UNL     1      -6.841   8.766  27.959  0.00  0.00    +0.210 HD
ENDBRANCH  31  41
BRANCH  29  43
ATOM     43  O   UNL     1      -1.703   7.020  26.405  0.00  0.00    -0.343 OA
ATOM     44  C   UNL     1      -1.937   5.895  27.289  0.00  0.00    +0.198 C 
ENDBRANCH  29  43
ENDBRANCH  26  27
BRANCH  26  45
ATOM     45  O   UNL     1      -3.607   9.319  22.848  0.00  0.00    -0.387 OA
ATOM     46  H   UNL     1      -3.319   8.527  23.308  0.00  0.00    +0.210 HD
ENDBRANCH  26  45
ENDBRANCH   1  26
TORSDOF 14
