REMARK VINA RESULT:    -5.182      4.837      9.238
REMARK INTER + INTRA:         -10.805
REMARK INTER:                  -7.243
REMARK INTRA:                  -3.563
REMARK UNBOUND:                -1.837
REMARK  Name = lig_assembled_2.pdb
REMARK  16 active torsions:
REMARK  status: ('A' for Active; 'I' for Inactive)
REMARK    1  A    between atoms: _2  and  _9
REMARK    2  A    between atoms: _4  and  _18
REMARK    3  A    between atoms: _6  and  _7
REMARK    4  A    between atoms: _6  and  _18
REMARK    5  A    between atoms: _14  and  _34
REMARK    6  A    between atoms: _16  and  _22
REMARK    7  A    between atoms: _17  and  _21
REMARK    8  A    between atoms: _21  and  _22
REMARK    9  A    between atoms: _24  and  _25
REMARK   10  A    between atoms: _26  and  _27
REMARK   11  A    between atoms: _28  and  _30
REMARK   12  A    between atoms: _30  and  _31
REMARK   13  A    between atoms: _30  and  _32
REMARK   14  A    between atoms: _32  and  _33
REMARK   15  A    between atoms: _32  and  _34
REMARK   16  A    between atoms: _35  and  _37
REMARK                            x       y       z     vdW  Elec       q    Type
REMARK                         _______ _______ _______ _____ _____    ______ ____
ROOT
ATOM      1  C   UNL     1      -6.509   8.507  23.941  0.00  0.00    +0.163 C 
ENDROOT
BRANCH   1   2
ATOM      2  O   UNL     1      -5.139   8.189  24.236  0.00  0.00    -0.388 OA
ATOM      3  H   UNL     1      -4.610   8.990  24.205  0.00  0.00    +0.210 HD
ENDBRANCH   1   2
BRANCH   1   4
ATOM      4  C   UNL     1      -7.225   7.275  23.397  0.00  0.00    +0.141 C 
BRANCH   4   7
ATOM      5  C   UNL     1      -6.040   6.518  21.366  0.00  0.00    +0.401 C 
ATOM      6  O   UNL     1      -5.115   5.991  21.989  0.00  0.00    -0.226 OA
ATOM      7  N   UNL     1      -7.065   7.146  21.944  0.00  0.00    -0.279 N 
ATOM      8  H   UNL     1      -7.770   7.555  21.348  0.00  0.00    +0.152 HD
BRANCH   5   9
ATOM      9  O   UNL     1      -6.032   6.469  19.937  0.00  0.00    -0.444 OA
BRANCH   9  10
ATOM     10  C   UNL     1      -6.820   7.543  19.418  0.00  0.00    +0.292 C 
BRANCH  10  12
ATOM     11  N   UNL     1      -5.037   9.239  19.676  0.00  0.00    -0.131 NA
ATOM     12  C   UNL     1      -5.948   8.606  18.882  0.00  0.00    +0.121 A 
ATOM     13  C   UNL     1      -5.869   9.120  17.607  0.00  0.00    +0.143 A 
ATOM     14  N   UNL     1      -4.863  10.057  17.665  0.00  0.00    -0.220 N 
ATOM     15  N   UNL     1      -4.387  10.123  18.932  0.00  0.00    -0.060 NA
BRANCH  14  16
ATOM     16  C   UNL     1      -4.324  10.846  16.616  0.00  0.00    +0.067 A 
ATOM     17  C   UNL     1      -4.435  12.244  16.635  0.00  0.00    +0.029 A 
ATOM     18  C   UNL     1      -3.930  13.001  15.572  0.00  0.00    +0.022 A 
ATOM     19  C   UNL     1      -3.314  12.368  14.494  0.00  0.00    +0.041 A 
ATOM     20 CL   UNL     1      -2.717  13.306  13.182  0.00  0.00    -0.084 Cl
ATOM     21  C   UNL     1      -3.185  10.982  14.473  0.00  0.00    +0.022 A 
ATOM     22  C   UNL     1      -3.686  10.219  15.532  0.00  0.00    +0.029 A 
ENDBRANCH  14  16
ENDBRANCH  10  12
ENDBRANCH   9  10
ENDBRANCH   5   9
ENDBRANCH   4   7
ENDBRANCH   1   4
BRANCH   1  23
ATOM     23  C   UNL     1      -6.599   9.649  22.914  0.00  0.00    +0.175 C 
BRANCH  23  24
ATOM     24  C   UNL     1      -5.575  10.759  23.193  0.00  0.00    +0.176 C 
ATOM     25  O   UNL     1      -5.474  10.923  24.634  0.00  0.00    -0.332 OA
ATOM     26  C   UNL     1      -4.458  11.874  25.094  0.00  0.00    +0.277 C 
ATOM     27  C   UNL     1      -4.667  13.255  24.424  0.00  0.00    +0.110 C 
ATOM     28  C   UNL     1      -4.812  13.128  22.893  0.00  0.00    +0.143 C 
ATOM     29  C   UNL     1      -5.893  12.111  22.526  0.00  0.00    +0.133 C 
BRANCH  29  30
ATOM     30  N   UNL     1      -5.961  11.935  21.067  0.00  0.00    -0.308 N 
ATOM     31  H   UNL     1      -5.220  11.415  20.619  0.00  0.00    +0.149 HD
ATOM     32  C   UNL     1      -6.939  12.419  20.296  0.00  0.00    +0.210 C 
ATOM     33  C   UNL     1      -8.039  13.231  21.005  0.00  0.00    +0.109 C 
ATOM     34  O   UNL     1      -6.978  12.244  19.077  0.00  0.00    -0.276 OA
ENDBRANCH  29  30
BRANCH  26  35
ATOM     35  C   UNL     1      -3.040  11.356  24.777  0.00  0.00    +0.414 C 
ATOM     36  O   UNL     1      -2.073  12.114  24.847  0.00  0.00    -0.240 OA
ATOM     37  O   UNL     1      -2.863  10.182  24.452  0.00  0.00    -0.240 OA
ENDBRANCH  26  35
BRANCH  28  38
ATOM     38  O   UNL     1      -5.152  14.398  22.335  0.00  0.00    -0.390 OA
ATOM     39  H   UNL     1      -6.078  14.586  22.506  0.00  0.00    +0.210 HD
ENDBRANCH  28  38
BRANCH  26  40
ATOM     40  O   UNL     1      -4.610  12.035  26.528  0.00  0.00    -0.343 OA
ATOM     41  C   UNL     1      -5.099  10.862  27.227  0.00  0.00    +0.198 C 
ENDBRANCH  26  40
ENDBRANCH  23  24
BRANCH  23  42
ATOM     42  O   UNL     1      -7.933  10.197  22.896  0.00  0.00    -0.387 OA
ATOM     43  H   UNL     1      -8.145  10.494  22.008  0.00  0.00    +0.210 HD
ENDBRANCH  23  42
ENDBRANCH   1  23
TORSDOF 14
