REMARK VINA RESULT:    -4.510      3.977      7.516
REMARK INTER + INTRA:         -11.719
REMARK INTER:                  -8.097
REMARK INTRA:                  -3.621
REMARK UNBOUND:                -3.914
REMARK  Name = lig_assembled_20.pdb
REMARK  16 active torsions:
REMARK  status: ('A' for Active; 'I' for Inactive)
REMARK    1  A    between atoms: _2  and  _11
REMARK    2  A    between atoms: _6  and  _21
REMARK    3  A    between atoms: _8  and  _9
REMARK    4  A    between atoms: _8  and  _21
REMARK    5  A    between atoms: _17  and  _37
REMARK    6  A    between atoms: _19  and  _25
REMARK    7  A    between atoms: _20  and  _24
REMARK    8  A    between atoms: _24  and  _25
REMARK    9  A    between atoms: _27  and  _28
REMARK   10  A    between atoms: _29  and  _30
REMARK   11  A    between atoms: _31  and  _33
REMARK   12  A    between atoms: _33  and  _34
REMARK   13  A    between atoms: _33  and  _35
REMARK   14  A    between atoms: _35  and  _36
REMARK   15  A    between atoms: _35  and  _37
REMARK   16  A    between atoms: _38  and  _40
REMARK                            x       y       z     vdW  Elec       q    Type
REMARK                         _______ _______ _______ _____ _____    ______ ____
ROOT
ATOM      1  C   UNL     1      -4.204   9.074  32.621  0.00  0.00    +0.163 C 
ENDROOT
BRANCH   1   2
ATOM      2  O   UNL     1      -3.026   9.867  32.841  0.00  0.00    -0.388 OA
ATOM      3  H   UNL     1      -2.249   9.362  32.589  0.00  0.00    +0.210 HD
ENDBRANCH   1   2
BRANCH   1   4
ATOM      4  C   UNL     1      -3.855   7.838  31.799  0.00  0.00    +0.141 C 
BRANCH   4   7
ATOM      5  C   UNL     1      -2.236   7.341  30.000  0.00  0.00    +0.401 C 
ATOM      6  O   UNL     1      -2.001   6.198  30.397  0.00  0.00    -0.226 OA
ATOM      7  N   UNL     1      -3.084   8.179  30.597  0.00  0.00    -0.279 N 
ATOM      8  H   UNL     1      -3.202   9.101  30.201  0.00  0.00    +0.152 HD
BRANCH   5   9
ATOM      9  O   UNL     1      -1.566   7.821  28.831  0.00  0.00    -0.444 OA
BRANCH   9  10
ATOM     10  C   UNL     1      -2.487   7.866  27.737  0.00  0.00    +0.292 C 
BRANCH  10  12
ATOM     11  N   UNL     1      -2.704  10.275  28.283  0.00  0.00    -0.131 NA
ATOM     12  C   UNL     1      -2.789   9.263  27.372  0.00  0.00    +0.121 A 
ATOM     13  C   UNL     1      -3.180   9.782  26.161  0.00  0.00    +0.143 A 
ATOM     14  N   UNL     1      -3.324  11.132  26.377  0.00  0.00    -0.220 N 
ATOM     15  N   UNL     1      -3.030  11.409  27.673  0.00  0.00    -0.060 NA
BRANCH  14  16
ATOM     16  C   UNL     1      -3.710  12.138  25.454  0.00  0.00    +0.068 A 
ATOM     17  C   UNL     1      -2.866  12.461  24.378  0.00  0.00    +0.030 A 
ATOM     18  C   UNL     1      -3.220  13.445  23.445  0.00  0.00    +0.030 A 
ATOM     19  C   UNL     1      -4.446  14.090  23.631  0.00  0.00    +0.066 A 
ATOM     20  C   UNL     1      -5.302  13.795  24.684  0.00  0.00    +0.021 A 
ATOM     21  C   UNL     1      -6.404  14.659  24.502  0.00  0.00    +0.142 A 
ATOM     22  N   UNL     1      -6.273  15.439  23.427  0.00  0.00    -0.181 NA
ATOM     23  N   UNL     1      -5.083  15.074  22.918  0.00  0.00    -0.277 N 
ATOM     24  H   UNL     1      -4.755  15.537  22.079  0.00  0.00    +0.189 HD
ATOM     25  C   UNL     1      -4.938  12.807  25.616  0.00  0.00    +0.039 A 
ENDBRANCH  14  16
ENDBRANCH  10  12
ENDBRANCH   9  10
ENDBRANCH   5   9
ENDBRANCH   4   7
ENDBRANCH   1   4
BRANCH   1  26
ATOM     26  C   UNL     1      -5.286   9.888  31.891  0.00  0.00    +0.175 C 
BRANCH  26  27
ATOM     27  C   UNL     1      -4.765  11.255  31.423  0.00  0.00    +0.176 C 
ATOM     28  O   UNL     1      -4.727  12.137  32.578  0.00  0.00    -0.332 OA
ATOM     29  C   UNL     1      -4.151  13.465  32.342  0.00  0.00    +0.277 C 
ATOM     30  C   UNL     1      -4.876  14.169  31.169  0.00  0.00    +0.110 C 
ATOM     31  C   UNL     1      -4.969  13.256  29.928  0.00  0.00    +0.143 C 
ATOM     32  C   UNL     1      -5.579  11.901  30.287  0.00  0.00    +0.133 C 
BRANCH  32  33
ATOM     33  N   UNL     1      -5.582  11.011  29.116  0.00  0.00    -0.308 N 
ATOM     34  H   UNL     1      -4.690  10.719  28.743  0.00  0.00    +0.149 HD
ATOM     35  C   UNL     1      -6.687  10.563  28.514  0.00  0.00    +0.210 C 
ATOM     36  C   UNL     1      -8.031  11.046  29.091  0.00  0.00    +0.109 C 
ATOM     37  O   UNL     1      -6.660   9.805  27.543  0.00  0.00    -0.276 OA
ENDBRANCH  32  33
BRANCH  29  38
ATOM     38  C   UNL     1      -2.644  13.360  32.029  0.00  0.00    +0.414 C 
ATOM     39  O   UNL     1      -2.108  14.176  31.281  0.00  0.00    -0.240 OA
ATOM     40  O   UNL     1      -1.965  12.459  32.523  0.00  0.00    -0.240 OA
ENDBRANCH  29  38
BRANCH  31  41
ATOM     41  O   UNL     1      -5.773  13.884  28.928  0.00  0.00    -0.390 OA
ATOM     42  H   UNL     1      -5.496  14.797  28.821  0.00  0.00    +0.210 HD
ENDBRANCH  31  41
BRANCH  29  43
ATOM     43  O   UNL     1      -4.346  14.258  33.542  0.00  0.00    -0.343 OA
ATOM     44  C   UNL     1      -4.231  15.691  33.354  0.00  0.00    +0.198 C 
ENDBRANCH  29  43
ENDBRANCH  26  27
BRANCH  26  45
ATOM     45  O   UNL     1      -6.437  10.060  32.741  0.00  0.00    -0.387 OA
ATOM     46  H   UNL     1      -6.311  10.831  33.299  0.00  0.00    +0.210 HD
ENDBRANCH  26  45
ENDBRANCH   1  26
TORSDOF 14
