REMARK VINA RESULT:    -5.508      3.360      7.563
REMARK INTER + INTRA:         -12.674
REMARK INTER:                  -8.703
REMARK INTRA:                  -3.971
REMARK UNBOUND:                -3.141
REMARK  Name = lig_assembled_91.pdb
REMARK  16 active torsions:
REMARK  status: ('A' for Active; 'I' for Inactive)
REMARK    1  A    between atoms: _2  and  _10
REMARK    2  A    between atoms: _5  and  _26
REMARK    3  A    between atoms: _7  and  _8
REMARK    4  A    between atoms: _7  and  _26
REMARK    5  A    between atoms: _22  and  _42
REMARK    6  A    between atoms: _24  and  _30
REMARK    7  A    between atoms: _25  and  _29
REMARK    8  A    between atoms: _29  and  _30
REMARK    9  A    between atoms: _32  and  _33
REMARK   10  A    between atoms: _34  and  _35
REMARK   11  A    between atoms: _36  and  _38
REMARK   12  A    between atoms: _38  and  _39
REMARK   13  A    between atoms: _38  and  _40
REMARK   14  A    between atoms: _40  and  _41
REMARK   15  A    between atoms: _40  and  _42
REMARK   16  A    between atoms: _43  and  _45
REMARK                            x       y       z     vdW  Elec       q    Type
REMARK                         _______ _______ _______ _____ _____    ______ ____
ROOT
ATOM      1  C   UNL     1      -5.687  13.902  24.278  0.00  0.00    +0.401 C 
ATOM      2  O   UNL     1      -6.576  13.878  23.423  0.00  0.00    -0.226 OA
ATOM      3  N   UNL     1      -4.478  13.364  24.112  0.00  0.00    -0.279 N 
ATOM      4  H   UNL     1      -3.813  13.444  24.868  0.00  0.00    +0.152 HD
ENDROOT
BRANCH   3   5
ATOM      5  C   UNL     1      -4.060  12.663  22.892  0.00  0.00    +0.141 C 
BRANCH   5   6
ATOM      6  C   UNL     1      -3.080  11.534  23.193  0.00  0.00    +0.163 C 
BRANCH   6   7
ATOM      7  O   UNL     1      -2.290  11.863  24.348  0.00  0.00    -0.388 OA
ATOM      8  H   UNL     1      -1.615  11.192  24.476  0.00  0.00    +0.210 HD
ENDBRANCH   6   7
BRANCH   6   9
ATOM      9  C   UNL     1      -3.857  10.224  23.413  0.00  0.00    +0.175 C 
BRANCH   9  10
ATOM     10  C   UNL     1      -3.857   9.793  24.887  0.00  0.00    +0.176 C 
ATOM     11  O   UNL     1      -2.857   8.749  25.047  0.00  0.00    -0.332 OA
ATOM     12  C   UNL     1      -2.639   8.284  26.420  0.00  0.00    +0.277 C 
ATOM     13  C   UNL     1      -3.976   7.830  27.056  0.00  0.00    +0.110 C 
ATOM     14  C   UNL     1      -5.080   8.895  26.883  0.00  0.00    +0.143 C 
ATOM     15  C   UNL     1      -5.219   9.308  25.417  0.00  0.00    +0.133 C 
BRANCH  15  16
ATOM     16  N   UNL     1      -6.212  10.385  25.277  0.00  0.00    -0.308 N 
ATOM     17  H   UNL     1      -6.017  11.268  25.727  0.00  0.00    +0.149 HD
ATOM     18  C   UNL     1      -7.354  10.271  24.594  0.00  0.00    +0.210 C 
ATOM     19  C   UNL     1      -7.634   8.905  23.941  0.00  0.00    +0.109 C 
ATOM     20  O   UNL     1      -8.160  11.195  24.481  0.00  0.00    -0.276 OA
ENDBRANCH  15  16
BRANCH  12  21
ATOM     21  C   UNL     1      -2.011   9.399  27.282  0.00  0.00    +0.414 C 
ATOM     22  O   UNL     1      -2.251   9.461  28.487  0.00  0.00    -0.240 OA
ATOM     23  O   UNL     1      -1.265  10.236  26.773  0.00  0.00    -0.240 OA
ENDBRANCH  12  21
BRANCH  14  24
ATOM     24  O   UNL     1      -6.327   8.376  27.346  0.00  0.00    -0.390 OA
ATOM     25  H   UNL     1      -6.918   8.248  26.600  0.00  0.00    +0.210 HD
ENDBRANCH  14  24
BRANCH  12  26
ATOM     26  O   UNL     1      -1.745   7.143  26.372  0.00  0.00    -0.343 OA
ATOM     27  C   UNL     1      -2.403   5.851  26.330  0.00  0.00    +0.198 C 
ENDBRANCH  12  26
ENDBRANCH   9  10
BRANCH   9  28
ATOM     28  O   UNL     1      -3.309   9.177  22.589  0.00  0.00    -0.387 OA
ATOM     29  H   UNL     1      -2.364   9.312  22.486  0.00  0.00    +0.210 HD
ENDBRANCH   9  28
ENDBRANCH   6   9
ENDBRANCH   5   6
ENDBRANCH   3   5
BRANCH   1  30
ATOM     30  O   UNL     1      -5.945  14.544  25.529  0.00  0.00    -0.444 OA
BRANCH  30  31
ATOM     31  C   UNL     1      -6.653  13.648  26.390  0.00  0.00    +0.292 C 
BRANCH  31  33
ATOM     32  N   UNL     1      -4.572  12.568  27.164  0.00  0.00    -0.131 NA
ATOM     33  C   UNL     1      -5.767  13.148  27.460  0.00  0.00    +0.121 A 
ATOM     34  C   UNL     1      -5.923  13.173  28.827  0.00  0.00    +0.143 A 
ATOM     35  N   UNL     1      -4.804  12.547  29.339  0.00  0.00    -0.218 N 
ATOM     36  N   UNL     1      -3.995  12.211  28.302  0.00  0.00    -0.060 NA
BRANCH  35  37
ATOM     37  C   UNL     1      -4.467  12.250  30.695  0.00  0.00    +0.085 A 
ATOM     38  C   UNL     1      -3.964  13.286  31.561  0.00  0.00    +0.026 A 
ATOM     39  C   UNL     1      -3.639  12.881  32.870  0.00  0.00    +0.074 A 
ATOM     40  C   UNL     1      -3.145  13.789  33.794  0.00  0.00    +0.028 A 
ATOM     41  C   UNL     1      -2.951  15.131  33.485  0.00  0.00    +0.002 A 
ATOM     42  C   UNL     1      -3.289  15.581  32.224  0.00  0.00    +0.001 A 
ATOM     43  N   UNL     1      -3.797  11.639  33.322  0.00  0.00    -0.247 NA
ATOM     44  C   UNL     1      -4.289  10.690  32.528  0.00  0.00    +0.074 A 
ATOM     45  C   UNL     1      -4.409   9.429  33.102  0.00  0.00    +0.028 A 
ATOM     46  C   UNL     1      -4.872   8.328  32.389  0.00  0.00    +0.002 A 
ATOM     47  C   UNL     1      -5.214   8.487  31.061  0.00  0.00    +0.001 A 
ATOM     48  C   UNL     1      -5.093   9.748  30.466  0.00  0.00    +0.012 A 
ATOM     49  C   UNL     1      -3.807  14.681  31.286  0.00  0.00    +0.012 A 
ATOM     50  C   UNL     1      -4.645  10.903  31.186  0.00  0.00    +0.026 A 
ENDBRANCH  35  37
ENDBRANCH  31  33
ENDBRANCH  30  31
ENDBRANCH   1  30
TORSDOF 14
