REMARK VINA RESULT:    -5.035      2.937      8.318
REMARK INTER + INTRA:         -10.724
REMARK INTER:                  -8.387
REMARK INTRA:                  -2.337
REMARK UNBOUND:                -2.010
REMARK  Name = lig_assembled_49.pdb
REMARK  16 active torsions:
REMARK  status: ('A' for Active; 'I' for Inactive)
REMARK    1  A    between atoms: _2  and  _9
REMARK    2  A    between atoms: _4  and  _17
REMARK    3  A    between atoms: _6  and  _7
REMARK    4  A    between atoms: _6  and  _17
REMARK    5  A    between atoms: _13  and  _33
REMARK    6  A    between atoms: _15  and  _21
REMARK    7  A    between atoms: _16  and  _20
REMARK    8  A    between atoms: _20  and  _21
REMARK    9  A    between atoms: _23  and  _24
REMARK   10  A    between atoms: _25  and  _26
REMARK   11  A    between atoms: _27  and  _29
REMARK   12  A    between atoms: _29  and  _30
REMARK   13  A    between atoms: _29  and  _31
REMARK   14  A    between atoms: _31  and  _32
REMARK   15  A    between atoms: _31  and  _33
REMARK   16  A    between atoms: _34  and  _36
REMARK                            x       y       z     vdW  Elec       q    Type
REMARK                         _______ _______ _______ _____ _____    ______ ____
ROOT
ATOM      1  C   UNL     1      -5.694   9.742  23.725  0.00  0.00    +0.175 C 
ENDROOT
BRANCH   1   2
ATOM      2  C   UNL     1      -5.675  11.054  22.927  0.00  0.00    +0.176 C 
ATOM      3  O   UNL     1      -5.381  10.730  21.540  0.00  0.00    -0.332 OA
ATOM      4  C   UNL     1      -5.427  11.856  20.603  0.00  0.00    +0.277 C 
ATOM      5  C   UNL     1      -4.496  12.997  21.082  0.00  0.00    +0.110 C 
ATOM      6  C   UNL     1      -4.750  13.355  22.562  0.00  0.00    +0.143 C 
ATOM      7  C   UNL     1      -4.683  12.110  23.447  0.00  0.00    +0.133 C 
BRANCH   7   8
ATOM      8  N   UNL     1      -5.012  12.450  24.840  0.00  0.00    -0.308 N 
ATOM      9  H   UNL     1      -5.971  12.681  25.055  0.00  0.00    +0.149 HD
ATOM     10  C   UNL     1      -4.125  12.474  25.839  0.00  0.00    +0.210 C 
ATOM     11  C   UNL     1      -2.666  12.142  25.474  0.00  0.00    +0.109 C 
ATOM     12  O   UNL     1      -4.432  12.748  26.999  0.00  0.00    -0.276 OA
ENDBRANCH   7   8
BRANCH   4  13
ATOM     13  C   UNL     1      -6.867  12.391  20.459  0.00  0.00    +0.414 C 
ATOM     14  O   UNL     1      -7.827  11.642  20.637  0.00  0.00    -0.240 OA
ATOM     15  O   UNL     1      -7.068  13.570  20.166  0.00  0.00    -0.240 OA
ENDBRANCH   4  13
BRANCH   6  16
ATOM     16  O   UNL     1      -3.774  14.300  23.003  0.00  0.00    -0.390 OA
ATOM     17  H   UNL     1      -4.092  15.191  22.838  0.00  0.00    +0.210 HD
ENDBRANCH   6  16
BRANCH   4  18
ATOM     18  O   UNL     1      -4.949  11.388  19.315  0.00  0.00    -0.343 OA
ATOM     19  C   UNL     1      -4.962   9.948  19.144  0.00  0.00    +0.198 C 
ENDBRANCH   4  18
ENDBRANCH   1   2
BRANCH   1  20
ATOM     20  O   UNL     1      -6.360   9.938  24.988  0.00  0.00    -0.387 OA
ATOM     21  H   UNL     1      -5.849  10.544  25.529  0.00  0.00    +0.210 HD
ENDBRANCH   1  20
BRANCH   1  22
ATOM     22  C   UNL     1      -4.279   9.183  23.953  0.00  0.00    +0.163 C 
BRANCH  22  23
ATOM     23  O   UNL     1      -3.788   8.528  22.772  0.00  0.00    -0.388 OA
ATOM     24  H   UNL     1      -2.860   8.743  22.649  0.00  0.00    +0.210 HD
ENDBRANCH  22  23
BRANCH  22  25
ATOM     25  C   UNL     1      -4.300   8.204  25.122  0.00  0.00    +0.141 C 
BRANCH  25  28
ATOM     26  C   UNL     1      -2.486   8.448  26.782  0.00  0.00    +0.401 C 
ATOM     27  O   UNL     1      -1.753   7.616  26.242  0.00  0.00    -0.226 OA
ATOM     28  N   UNL     1      -3.696   8.780  26.330  0.00  0.00    -0.279 N 
ATOM     29  H   UNL     1      -4.226   9.467  26.848  0.00  0.00    +0.152 HD
BRANCH  26  30
ATOM     30  O   UNL     1      -2.034   9.106  27.968  0.00  0.00    -0.444 OA
BRANCH  30  31
ATOM     31  C   UNL     1      -2.860   8.724  29.071  0.00  0.00    +0.292 C 
BRANCH  31  33
ATOM     32  N   UNL     1      -2.731   9.786  31.301  0.00  0.00    -0.131 NA
ATOM     33  C   UNL     1      -3.070   9.869  29.977  0.00  0.00    +0.120 A 
ATOM     34  C   UNL     1      -3.596  11.115  29.723  0.00  0.00    +0.137 A 
ATOM     35  N   UNL     1      -3.557  11.741  30.934  0.00  0.00    -0.248 N 
ATOM     36  N   UNL     1      -3.033  10.940  31.878  0.00  0.00    -0.065 NA
BRANCH  35  37
ATOM     37  C   UNL     1      -4.014  13.072  31.256  0.00  0.00    +0.109 C 
ATOM     38  C   UNL     1      -2.986  14.167  30.967  0.00  0.00    +0.027 C 
ATOM     39  C   UNL     1      -3.829  15.430  30.958  0.00  0.00    +0.002 C 
ATOM     40  C   UNL     1      -5.115  15.017  30.254  0.00  0.00    +0.002 C 
ATOM     41  C   UNL     1      -5.273  13.514  30.497  0.00  0.00    +0.027 C 
ENDBRANCH  35  37
ENDBRANCH  31  33
ENDBRANCH  30  31
ENDBRANCH  26  30
ENDBRANCH  25  28
ENDBRANCH  22  25
ENDBRANCH   1  22
TORSDOF 14
