REMARK VINA RESULT:    -5.136      3.632     11.451
REMARK INTER + INTRA:         -11.756
REMARK INTER:                  -9.428
REMARK INTRA:                  -2.328
REMARK UNBOUND:                -2.867
REMARK  Name = lig_assembled_70.pdb
REMARK  16 active torsions:
REMARK  status: ('A' for Active; 'I' for Inactive)
REMARK    1  A    between atoms: _2  and  _10
REMARK    2  A    between atoms: _5  and  _22
REMARK    3  A    between atoms: _7  and  _8
REMARK    4  A    between atoms: _7  and  _22
REMARK    5  A    between atoms: _18  and  _38
REMARK    6  A    between atoms: _20  and  _26
REMARK    7  A    between atoms: _21  and  _25
REMARK    8  A    between atoms: _25  and  _26
REMARK    9  A    between atoms: _28  and  _29
REMARK   10  A    between atoms: _30  and  _31
REMARK   11  A    between atoms: _32  and  _34
REMARK   12  A    between atoms: _34  and  _35
REMARK   13  A    between atoms: _34  and  _36
REMARK   14  A    between atoms: _36  and  _37
REMARK   15  A    between atoms: _36  and  _38
REMARK   16  A    between atoms: _39  and  _41
REMARK                            x       y       z     vdW  Elec       q    Type
REMARK                         _______ _______ _______ _____ _____    ______ ____
ROOT
ATOM      1  C   UNL     1      -4.461   9.002  24.054  0.00  0.00    +0.163 C 
ENDROOT
BRANCH   1   2
ATOM      2  O   UNL     1      -3.979   8.254  22.926  0.00  0.00    -0.388 OA
ATOM      3  H   UNL     1      -4.230   8.701  22.114  0.00  0.00    +0.210 HD
ENDBRANCH   1   2
BRANCH   1   4
ATOM      4  C   UNL     1      -4.542   8.100  25.282  0.00  0.00    +0.141 C 
BRANCH   4   7
ATOM      5  C   UNL     1      -2.728   8.613  26.880  0.00  0.00    +0.401 C 
ATOM      6  O   UNL     1      -1.893   7.914  26.301  0.00  0.00    -0.226 OA
ATOM      7  N   UNL     1      -3.992   8.752  26.477  0.00  0.00    -0.279 N 
ATOM      8  H   UNL     1      -4.605   9.340  27.024  0.00  0.00    +0.152 HD
BRANCH   5   9
ATOM      9  O   UNL     1      -2.343   9.322  28.061  0.00  0.00    -0.444 OA
BRANCH   9  10
ATOM     10  C   UNL     1      -3.442   9.362  28.974  0.00  0.00    +0.292 C 
BRANCH  10  12
ATOM     11  N   UNL     1      -2.561  10.267  31.107  0.00  0.00    -0.131 NA
ATOM     12  C   UNL     1      -3.262  10.453  29.950  0.00  0.00    +0.121 A 
ATOM     13  C   UNL     1      -3.713  11.751  29.904  0.00  0.00    +0.143 A 
ATOM     14  N   UNL     1      -3.247  12.332  31.061  0.00  0.00    -0.218 N 
ATOM     15  N   UNL     1      -2.563  11.412  31.780  0.00  0.00    -0.060 NA
BRANCH  14  16
ATOM     16  C   UNL     1      -3.393  13.668  31.490  0.00  0.00    +0.086 A 
ATOM     17  C   UNL     1      -2.828  14.089  32.682  0.00  0.00    +0.139 A 
ATOM     18  N   UNL     1      -2.890  15.368  33.132  0.00  0.00    -0.253 NA
ATOM     19  C   UNL     1      -3.528  16.281  32.376  0.00  0.00    +0.071 A 
ATOM     20  C   UNL     1      -4.148  15.940  31.156  0.00  0.00    +0.002 A 
ATOM     21  C   UNL     1      -4.805  16.921  30.391  0.00  0.00    +0.010 A 
ATOM     22  C   UNL     1      -4.834  18.244  30.822  0.00  0.00    +0.001 A 
ATOM     23  C   UNL     1      -4.218  18.587  32.020  0.00  0.00    +0.002 A 
ATOM     24  C   UNL     1      -3.580  17.607  32.785  0.00  0.00    +0.028 A 
ATOM     25  C   UNL     1      -4.080  14.610  30.723  0.00  0.00    +0.039 A 
ENDBRANCH  14  16
ENDBRANCH  10  12
ENDBRANCH   9  10
ENDBRANCH   5   9
ENDBRANCH   4   7
ENDBRANCH   1   4
BRANCH   1  26
ATOM     26  C   UNL     1      -5.848   9.601  23.765  0.00  0.00    +0.175 C 
BRANCH  26  27
ATOM     27  C   UNL     1      -5.760  10.877  22.915  0.00  0.00    +0.176 C 
ATOM     28  O   UNL     1      -5.411  10.487  21.558  0.00  0.00    -0.332 OA
ATOM     29  C   UNL     1      -5.385  11.573  20.573  0.00  0.00    +0.277 C 
ATOM     30  C   UNL     1      -4.449  12.712  21.048  0.00  0.00    +0.110 C 
ATOM     31  C   UNL     1      -4.761  13.139  22.497  0.00  0.00    +0.143 C 
ATOM     32  C   UNL     1      -4.766  11.932  23.436  0.00  0.00    +0.133 C 
BRANCH  32  33
ATOM     33  N   UNL     1      -5.150  12.339  24.797  0.00  0.00    -0.308 N 
ATOM     34  H   UNL     1      -6.118  12.575  24.963  0.00  0.00    +0.149 HD
ATOM     35  C   UNL     1      -4.302  12.416  25.826  0.00  0.00    +0.210 C 
ATOM     36  C   UNL     1      -2.829  12.075  25.535  0.00  0.00    +0.109 C 
ATOM     37  O   UNL     1      -4.655  12.746  26.959  0.00  0.00    -0.276 OA
ENDBRANCH  32  33
BRANCH  29  38
ATOM     38  C   UNL     1      -6.803  12.134  20.340  0.00  0.00    +0.414 C 
ATOM     39  O   UNL     1      -6.966  13.333  20.116  0.00  0.00    -0.240 OA
ATOM     40  O   UNL     1      -7.783  11.389  20.377  0.00  0.00    -0.240 OA
ENDBRANCH  29  38
BRANCH  31  41
ATOM     41  O   UNL     1      -3.783  14.079  22.944  0.00  0.00    -0.390 OA
ATOM     42  H   UNL     1      -4.205  14.744  23.492  0.00  0.00    +0.210 HD
ENDBRANCH  31  41
BRANCH  29  43
ATOM     43  O   UNL     1      -4.861  11.039  19.330  0.00  0.00    -0.343 OA
ATOM     44  C   UNL     1      -5.135   9.633  19.104  0.00  0.00    +0.198 C 
ENDBRANCH  29  43
ENDBRANCH  26  27
BRANCH  26  45
ATOM     45  O   UNL     1      -6.539   9.874  25.000  0.00  0.00    -0.387 OA
ATOM     46  H   UNL     1      -6.598  10.824  25.131  0.00  0.00    +0.210 HD
ENDBRANCH  26  45
ENDBRANCH   1  26
TORSDOF 14
