REMARK VINA RESULT:    -4.033      2.984      6.326
REMARK INTER + INTRA:         -10.353
REMARK INTER:                  -6.980
REMARK INTRA:                  -3.373
REMARK UNBOUND:                -3.373
REMARK  Name = lig_assembled_27.pdb
REMARK  16 active torsions:
REMARK  status: ('A' for Active; 'I' for Inactive)
REMARK    1  A    between atoms: _2  and  _9
REMARK    2  A    between atoms: _4  and  _18
REMARK    3  A    between atoms: _6  and  _7
REMARK    4  A    between atoms: _6  and  _18
REMARK    5  A    between atoms: _14  and  _34
REMARK    6  A    between atoms: _16  and  _22
REMARK    7  A    between atoms: _17  and  _21
REMARK    8  A    between atoms: _21  and  _22
REMARK    9  A    between atoms: _24  and  _25
REMARK   10  A    between atoms: _26  and  _27
REMARK   11  A    between atoms: _28  and  _30
REMARK   12  A    between atoms: _30  and  _31
REMARK   13  A    between atoms: _30  and  _32
REMARK   14  A    between atoms: _32  and  _33
REMARK   15  A    between atoms: _32  and  _34
REMARK   16  A    between atoms: _35  and  _37
REMARK                            x       y       z     vdW  Elec       q    Type
REMARK                         _______ _______ _______ _____ _____    ______ ____
ROOT
ATOM      1  C   UNL     1      -3.521  10.831  31.563  0.00  0.00    +0.163 C 
ENDROOT
BRANCH   1   2
ATOM      2  O   UNL     1      -2.766  11.575  30.594  0.00  0.00    -0.388 OA
ATOM      3  H   UNL     1      -1.877  11.724  30.926  0.00  0.00    +0.210 HD
ENDBRANCH   1   2
BRANCH   1   4
ATOM      4  C   UNL     1      -3.725   9.399  31.078  0.00  0.00    +0.141 C 
BRANCH   4   7
ATOM      5  C   UNL     1      -2.586   8.351  29.152  0.00  0.00    +0.401 C 
ATOM      6  O   UNL     1      -1.960   7.543  29.842  0.00  0.00    -0.226 OA
ATOM      7  N   UNL     1      -3.428   9.259  29.647  0.00  0.00    -0.279 N 
ATOM      8  H   UNL     1      -3.888   9.885  29.001  0.00  0.00    +0.152 HD
BRANCH   5   9
ATOM      9  O   UNL     1      -2.410   8.335  27.733  0.00  0.00    -0.444 OA
BRANCH   9  10
ATOM     10  C   UNL     1      -1.517   9.384  27.350  0.00  0.00    +0.292 C 
BRANCH  10  12
ATOM     11  N   UNL     1      -2.847  11.469  27.451  0.00  0.00    -0.131 NA
ATOM     12  C   UNL     1      -2.261  10.484  26.709  0.00  0.00    +0.121 A 
ATOM     13  C   UNL     1      -2.496  10.728  25.376  0.00  0.00    +0.143 A 
ATOM     14  N   UNL     1      -3.230  11.892  25.349  0.00  0.00    -0.220 N 
ATOM     15  N   UNL     1      -3.434  12.319  26.619  0.00  0.00    -0.060 NA
BRANCH  14  16
ATOM     16  C   UNL     1      -3.732  12.599  24.227  0.00  0.00    +0.068 A 
ATOM     17  C   UNL     1      -3.321  12.238  22.934  0.00  0.00    +0.028 A 
ATOM     18  C   UNL     1      -3.806  12.930  21.822  0.00  0.00    +0.003 A 
ATOM     19  C   UNL     1      -4.702  13.984  21.991  0.00  0.00    +0.020 A 
ATOM     20  C   UNL     1      -5.113  14.342  23.273  0.00  0.00    +0.043 A 
ATOM     21 CL   UNL     1      -6.221  15.643  23.481  0.00  0.00    -0.083 Cl
ATOM     22  C   UNL     1      -4.636  13.658  24.393  0.00  0.00    +0.047 A 
ENDBRANCH  14  16
ENDBRANCH  10  12
ENDBRANCH   9  10
ENDBRANCH   5   9
ENDBRANCH   4   7
ENDBRANCH   1   4
BRANCH   1  23
ATOM     23  C   UNL     1      -4.889  11.487  31.816  0.00  0.00    +0.175 C 
BRANCH  23  24
ATOM     24  C   UNL     1      -5.038  12.821  31.069  0.00  0.00    +0.176 C 
ATOM     25  O   UNL     1      -5.461  13.827  32.029  0.00  0.00    -0.332 OA
ATOM     26  C   UNL     1      -5.553  15.196  31.514  0.00  0.00    +0.277 C 
ATOM     27  C   UNL     1      -6.470  15.244  30.267  0.00  0.00    +0.110 C 
ATOM     28  C   UNL     1      -6.079  14.170  29.231  0.00  0.00    +0.143 C 
ATOM     29  C   UNL     1      -6.010  12.785  29.875  0.00  0.00    +0.133 C 
BRANCH  29  30
ATOM     30  N   UNL     1      -5.552  11.785  28.898  0.00  0.00    -0.308 N 
ATOM     31  H   UNL     1      -4.632  11.904  28.497  0.00  0.00    +0.149 HD
ATOM     32  C   UNL     1      -6.272  10.731  28.506  0.00  0.00    +0.210 C 
ATOM     33  C   UNL     1      -7.680  10.592  29.115  0.00  0.00    +0.109 C 
ATOM     34  O   UNL     1      -5.857   9.901  27.697  0.00  0.00    -0.276 OA
ENDBRANCH  29  30
BRANCH  26  35
ATOM     35  C   UNL     1      -4.156  15.738  31.147  0.00  0.00    +0.414 C 
ATOM     36  O   UNL     1      -3.144  15.134  31.500  0.00  0.00    -0.240 OA
ATOM     37  O   UNL     1      -4.040  16.779  30.499  0.00  0.00    -0.240 OA
ENDBRANCH  26  35
BRANCH  28  38
ATOM     38  O   UNL     1      -7.038  14.150  28.173  0.00  0.00    -0.390 OA
ATOM     39  H   UNL     1      -7.726  14.795  28.351  0.00  0.00    +0.210 HD
ENDBRANCH  28  38
BRANCH  26  40
ATOM     40  O   UNL     1      -6.143  16.026  32.548  0.00  0.00    -0.343 OA
ATOM     41  C   UNL     1      -5.436  16.022  33.814  0.00  0.00    +0.198 C 
ENDBRANCH  26  40
ENDBRANCH  23  24
BRANCH  23  42
ATOM     42  O   UNL     1      -5.091  11.685  33.230  0.00  0.00    -0.387 OA
ATOM     43  H   UNL     1      -4.241  11.705  33.675  0.00  0.00    +0.210 HD
ENDBRANCH  23  42
ENDBRANCH   1  23
TORSDOF 14
