REMARK VINA RESULT:    -4.838      0.000      0.000
REMARK INTER + INTRA:         -11.869
REMARK INTER:                  -9.302
REMARK INTRA:                  -2.567
REMARK UNBOUND:                -3.213
REMARK  Name = lig_assembled_46.pdb
REMARK  17 active torsions:
REMARK  status: ('A' for Active; 'I' for Inactive)
REMARK    1  A    between atoms: _2  and  _9
REMARK    2  A    between atoms: _4  and  _19
REMARK    3  A    between atoms: _6  and  _7
REMARK    4  A    between atoms: _6  and  _19
REMARK    5  A    between atoms: _9  and  _10
REMARK    6  A    between atoms: _15  and  _35
REMARK    7  A    between atoms: _17  and  _23
REMARK    8  A    between atoms: _18  and  _22
REMARK    9  A    between atoms: _22  and  _23
REMARK   10  A    between atoms: _25  and  _26
REMARK   11  A    between atoms: _27  and  _28
REMARK   12  A    between atoms: _29  and  _31
REMARK   13  A    between atoms: _31  and  _32
REMARK   14  A    between atoms: _31  and  _33
REMARK   15  A    between atoms: _33  and  _34
REMARK   16  A    between atoms: _33  and  _35
REMARK   17  A    between atoms: _36  and  _38
REMARK                            x       y       z     vdW  Elec       q    Type
REMARK                         _______ _______ _______ _____ _____    ______ ____
ROOT
ATOM      1  C   UNL     1      -3.273  11.823  25.073  0.00  0.00    +0.163 C 
ENDROOT
BRANCH   1   2
ATOM      2  O   UNL     1      -2.161  10.922  24.949  0.00  0.00    -0.388 OA
ATOM      3  H   UNL     1      -2.469  10.077  24.611  0.00  0.00    +0.210 HD
ENDBRANCH   1   2
BRANCH   1   4
ATOM      4  C   UNL     1      -2.974  13.126  24.340  0.00  0.00    +0.141 C 
BRANCH   4   7
ATOM      5  C   UNL     1      -5.060  13.889  23.259  0.00  0.00    +0.401 C 
ATOM      6  O   UNL     1      -5.563  14.302  24.306  0.00  0.00    -0.226 OA
ATOM      7  N   UNL     1      -3.857  13.320  23.184  0.00  0.00    -0.279 N 
ATOM      8  H   UNL     1      -3.534  13.003  22.280  0.00  0.00    +0.152 HD
BRANCH   5   9
ATOM      9  O   UNL     1      -5.796  14.013  22.039  0.00  0.00    -0.444 OA
BRANCH   9  10
ATOM     10  C   UNL     1      -6.479  12.787  21.766  0.00  0.00    +0.292 C 
BRANCH  10  12
ATOM     11  N   UNL     1      -4.938  10.949  21.157  0.00  0.00    -0.131 NA
ATOM     12  C   UNL     1      -5.733  11.993  20.771  0.00  0.00    +0.120 A 
ATOM     13  C   UNL     1      -5.712  12.092  19.396  0.00  0.00    +0.137 A 
ATOM     14  N   UNL     1      -4.932  11.042  19.001  0.00  0.00    -0.247 N 
ATOM     15  N   UNL     1      -4.457  10.366  20.065  0.00  0.00    -0.065 NA
BRANCH  14  16
ATOM     16  C   UNL     1      -4.807  10.486  17.665  0.00  0.00    +0.180 C 
BRANCH  16  17
ATOM     17  C   UNL     1      -4.954  11.508  16.566  0.00  0.00    -0.026 A 
ATOM     18  C   UNL     1      -3.890  12.356  16.221  0.00  0.00    +0.005 A 
ATOM     19  C   UNL     1      -4.003  13.233  15.139  0.00  0.00    +0.000 A 
ATOM     20  C   UNL     1      -5.176  13.270  14.389  0.00  0.00    +0.000 A 
ATOM     21  C   UNL     1      -6.243  12.440  14.725  0.00  0.00    +0.000 A 
ATOM     22  C   UNL     1      -6.133  11.563  15.807  0.00  0.00    +0.005 A 
ENDBRANCH  16  17
ENDBRANCH  14  16
ENDBRANCH  10  12
ENDBRANCH   9  10
ENDBRANCH   5   9
ENDBRANCH   4   7
ENDBRANCH   1   4
BRANCH   1  23
ATOM     23  C   UNL     1      -3.576  12.123  26.552  0.00  0.00    +0.175 C 
BRANCH  23  24
ATOM     24  C   UNL     1      -3.333  10.901  27.450  0.00  0.00    +0.176 C 
ATOM     25  O   UNL     1      -3.955   9.749  26.816  0.00  0.00    -0.332 OA
ATOM     26  C   UNL     1      -3.734   8.463  27.484  0.00  0.00    +0.277 C 
ATOM     27  C   UNL     1      -4.169   8.541  28.968  0.00  0.00    +0.110 C 
ATOM     28  C   UNL     1      -3.558   9.769  29.676  0.00  0.00    +0.143 C 
ATOM     29  C   UNL     1      -3.845  11.052  28.895  0.00  0.00    +0.133 C 
BRANCH  29  30
ATOM     30  N   UNL     1      -3.184  12.202  29.532  0.00  0.00    -0.308 N 
ATOM     31  H   UNL     1      -2.174  12.223  29.536  0.00  0.00    +0.149 HD
ATOM     32  C   UNL     1      -3.833  13.219  30.107  0.00  0.00    +0.210 C 
ATOM     33  C   UNL     1      -5.371  13.144  30.107  0.00  0.00    +0.109 C 
ATOM     34  O   UNL     1      -3.253  14.177  30.620  0.00  0.00    -0.276 OA
ENDBRANCH  29  30
BRANCH  26  35
ATOM     35  C   UNL     1      -2.250   8.052  27.403  0.00  0.00    +0.414 C 
ATOM     36  O   UNL     1      -1.577   8.349  26.416  0.00  0.00    -0.240 OA
ATOM     37  O   UNL     1      -1.724   7.423  28.322  0.00  0.00    -0.240 OA
ENDBRANCH  26  35
BRANCH  26  38
ATOM     38  O   UNL     1      -4.554   7.466  26.820  0.00  0.00    -0.343 OA
ATOM     39  C   UNL     1      -5.099   7.876  25.540  0.00  0.00    +0.198 C 
ENDBRANCH  26  38
BRANCH  28  40
ATOM     40  O   UNL     1      -4.102   9.887  30.991  0.00  0.00    -0.390 OA
ATOM     41  H   UNL     1      -4.851  10.488  30.976  0.00  0.00    +0.210 HD
ENDBRANCH  28  40
ENDBRANCH  23  24
BRANCH  23  42
ATOM     42  O   UNL     1      -4.934  12.584  26.697  0.00  0.00    -0.387 OA
ATOM     43  H   UNL     1      -5.528  11.830  26.720  0.00  0.00    +0.210 HD
ENDBRANCH  23  42
ENDBRANCH   1  23
TORSDOF 15
