REMARK VINA RESULT:    -5.271      4.408      6.943
REMARK INTER + INTRA:         -12.726
REMARK INTER:                  -8.936
REMARK INTRA:                  -3.790
REMARK UNBOUND:                -2.678
REMARK  Name = lig_assembled_26.pdb
REMARK  20 active torsions:
REMARK  status: ('A' for Active; 'I' for Inactive)
REMARK    1  A    between atoms: _2  and  _9
REMARK    2  A    between atoms: _4  and  _23
REMARK    3  A    between atoms: _6  and  _7
REMARK    4  A    between atoms: _6  and  _23
REMARK    5  A    between atoms: _9  and  _10
REMARK    6  A    between atoms: _9  and  _11
REMARK    7  A    between atoms: _11  and  _12
REMARK    8  A    between atoms: _12  and  _13
REMARK    9  A    between atoms: _19  and  _39
REMARK   10  A    between atoms: _21  and  _27
REMARK   11  A    between atoms: _22  and  _26
REMARK   12  A    between atoms: _26  and  _27
REMARK   13  A    between atoms: _29  and  _30
REMARK   14  A    between atoms: _31  and  _32
REMARK   15  A    between atoms: _33  and  _35
REMARK   16  A    between atoms: _35  and  _36
REMARK   17  A    between atoms: _35  and  _37
REMARK   18  A    between atoms: _37  and  _38
REMARK   19  A    between atoms: _37  and  _39
REMARK   20  A    between atoms: _40  and  _42
REMARK                            x       y       z     vdW  Elec       q    Type
REMARK                         _______ _______ _______ _____ _____    ______ ____
ROOT
ATOM      1  C   UNL     1      -5.935  13.230  27.773  0.00  0.00    +0.163 C 
ENDROOT
BRANCH   1   2
ATOM      2  O   UNL     1      -6.481  14.557  27.702  0.00  0.00    -0.388 OA
ATOM      3  H   UNL     1      -5.766  15.197  27.685  0.00  0.00    +0.210 HD
ENDBRANCH   1   2
BRANCH   1   4
ATOM      4  C   UNL     1      -5.799  12.767  29.234  0.00  0.00    +0.175 C 
BRANCH   4   5
ATOM      5  C   UNL     1      -4.532  11.931  29.460  0.00  0.00    +0.176 C 
ATOM      6  O   UNL     1      -4.903  10.527  29.384  0.00  0.00    -0.332 OA
ATOM      7  C   UNL     1      -3.794   9.572  29.473  0.00  0.00    +0.277 C 
ATOM      8  C   UNL     1      -2.963   9.825  30.755  0.00  0.00    +0.110 C 
ATOM      9  C   UNL     1      -2.572  11.311  30.895  0.00  0.00    +0.143 C 
ATOM     10  C   UNL     1      -3.800  12.215  30.785  0.00  0.00    +0.133 C 
BRANCH  10  11
ATOM     11  N   UNL     1      -3.404  13.631  30.834  0.00  0.00    -0.308 N 
ATOM     12  H   UNL     1      -2.861  13.996  30.063  0.00  0.00    +0.149 HD
ATOM     13  C   UNL     1      -3.714  14.466  31.829  0.00  0.00    +0.210 C 
ATOM     14  C   UNL     1      -4.519  13.873  33.001  0.00  0.00    +0.109 C 
ATOM     15  O   UNL     1      -3.381  15.652  31.836  0.00  0.00    -0.276 OA
ENDBRANCH  10  11
BRANCH   7  16
ATOM     16  C   UNL     1      -2.879   9.681  28.235  0.00  0.00    +0.414 C 
ATOM     17  O   UNL     1      -1.726   9.254  28.278  0.00  0.00    -0.240 OA
ATOM     18  O   UNL     1      -3.293  10.195  27.196  0.00  0.00    -0.240 OA
ENDBRANCH   7  16
BRANCH   7  19
ATOM     19  O   UNL     1      -4.356   8.237  29.549  0.00  0.00    -0.343 OA
ATOM     20  C   UNL     1      -5.792   8.187  29.743  0.00  0.00    +0.198 C 
ENDBRANCH   7  19
BRANCH   9  21
ATOM     21  O   UNL     1      -1.941  11.526  32.159  0.00  0.00    -0.390 OA
ATOM     22  H   UNL     1      -1.035  11.812  32.021  0.00  0.00    +0.210 HD
ENDBRANCH   9  21
ENDBRANCH   4   5
BRANCH   4  23
ATOM     23  O   UNL     1      -6.966  12.018  29.628  0.00  0.00    -0.387 OA
ATOM     24  H   UNL     1      -7.751  12.427  29.255  0.00  0.00    +0.210 HD
ENDBRANCH   4  23
ENDBRANCH   1   4
BRANCH   1  25
ATOM     25  C   UNL     1      -6.829  12.256  27.011  0.00  0.00    +0.141 C 
BRANCH  25  28
ATOM     26  C   UNL     1      -6.735   9.837  26.517  0.00  0.00    +0.401 C 
ATOM     27  O   UNL     1      -7.951   9.670  26.637  0.00  0.00    -0.226 OA
ATOM     28  N   UNL     1      -6.124  11.011  26.680  0.00  0.00    -0.279 N 
ATOM     29  H   UNL     1      -5.121  11.046  26.570  0.00  0.00    +0.152 HD
BRANCH  26  30
ATOM     30  O   UNL     1      -5.910   8.717  26.186  0.00  0.00    -0.444 OA
BRANCH  30  31
ATOM     31  C   UNL     1      -6.261   8.231  24.888  0.00  0.00    +0.292 C 
BRANCH  31  33
ATOM     32  N   UNL     1      -4.100   8.189  23.668  0.00  0.00    -0.131 NA
ATOM     33  C   UNL     1      -5.329   8.756  23.874  0.00  0.00    +0.120 A 
ATOM     34  C   UNL     1      -5.490   9.811  23.006  0.00  0.00    +0.137 A 
ATOM     35  N   UNL     1      -4.316   9.859  22.316  0.00  0.00    -0.248 N 
ATOM     36  N   UNL     1      -3.493   8.861  22.699  0.00  0.00    -0.065 NA
BRANCH  35  37
ATOM     37  C   UNL     1      -3.911  10.749  21.239  0.00  0.00    +0.113 C 
ATOM     38  C   UNL     1      -5.073  11.465  20.537  0.00  0.00    +0.033 C 
BRANCH  37  39
ATOM     39  C   UNL     1      -2.809  11.735  21.666  0.00  0.00    +0.106 C 
BRANCH  39  40
ATOM     40  C   UNL     1      -3.049  12.383  23.017  0.00  0.00    +0.165 C 
ATOM     41  O   UNL     1      -2.547  11.950  24.052  0.00  0.00    -0.292 OA
BRANCH  40  42
ATOM     42  C   UNL     1      -3.960  13.565  23.098  0.00  0.00    +0.017 A 
ATOM     43  C   UNL     1      -4.974  13.668  24.057  0.00  0.00    +0.011 A 
ATOM     44  C   UNL     1      -5.769  14.815  24.113  0.00  0.00    +0.001 A 
ATOM     45  C   UNL     1      -5.562  15.858  23.212  0.00  0.00    +0.000 A 
ATOM     46  C   UNL     1      -4.564  15.758  22.247  0.00  0.00    +0.001 A 
ATOM     47  C   UNL     1      -3.764  14.616  22.190  0.00  0.00    +0.011 A 
ENDBRANCH  40  42
ENDBRANCH  39  40
ENDBRANCH  37  39
ENDBRANCH  35  37
ENDBRANCH  31  33
ENDBRANCH  30  31
ENDBRANCH  26  30
ENDBRANCH  25  28
ENDBRANCH   1  25
TORSDOF 17
