REMARK VINA RESULT:    -4.162      7.900     13.408
REMARK INTER + INTRA:         -10.609
REMARK INTER:                  -7.138
REMARK INTRA:                  -3.471
REMARK UNBOUND:                -3.040
REMARK  Name = lig_assembled_1.pdb
REMARK  18 active torsions:
REMARK  status: ('A' for Active; 'I' for Inactive)
REMARK    1  A    between atoms: _2  and  _9
REMARK    2  A    between atoms: _4  and  _15
REMARK    3  A    between atoms: _5  and  _9
REMARK    4  A    between atoms: _5  and  _10
REMARK    5  A    between atoms: _6  and  _7
REMARK    6  A    between atoms: _6  and  _15
REMARK    7  A    between atoms: _11  and  _31
REMARK    8  A    between atoms: _13  and  _19
REMARK    9  A    between atoms: _14  and  _18
REMARK   10  A    between atoms: _18  and  _19
REMARK   11  A    between atoms: _21  and  _22
REMARK   12  A    between atoms: _23  and  _24
REMARK   13  A    between atoms: _25  and  _27
REMARK   14  A    between atoms: _27  and  _28
REMARK   15  A    between atoms: _27  and  _29
REMARK   16  A    between atoms: _29  and  _30
REMARK   17  A    between atoms: _29  and  _31
REMARK   18  A    between atoms: _32  and  _34
REMARK                            x       y       z     vdW  Elec       q    Type
REMARK                         _______ _______ _______ _____ _____    ______ ____
ROOT
ATOM      1  C   UNL     1      -2.849   9.422  14.173  0.00  0.00    +0.175 C 
ENDROOT
BRANCH   1   2
ATOM      2  C   UNL     1      -3.192  10.553  13.193  0.00  0.00    +0.176 C 
ATOM      3  O   UNL     1      -1.948  11.033  12.611  0.00  0.00    -0.332 OA
ATOM      4  C   UNL     1      -2.089  12.050  11.565  0.00  0.00    +0.277 C 
ATOM      5  C   UNL     1      -2.920  13.249  12.085  0.00  0.00    +0.110 C 
ATOM      6  C   UNL     1      -4.238  12.786  12.741  0.00  0.00    +0.143 C 
ATOM      7  C   UNL     1      -3.975  11.726  13.811  0.00  0.00    +0.133 C 
BRANCH   7   8
ATOM      8  N   UNL     1      -5.244  11.230  14.368  0.00  0.00    -0.308 N 
ATOM      9  H   UNL     1      -5.842  10.684  13.764  0.00  0.00    +0.149 HD
ATOM     10  C   UNL     1      -5.656  11.455  15.618  0.00  0.00    +0.210 C 
ATOM     11  C   UNL     1      -4.734  12.313  16.505  0.00  0.00    +0.109 C 
ATOM     12  O   UNL     1      -6.717  11.015  16.062  0.00  0.00    -0.276 OA
ENDBRANCH   7   8
BRANCH   4  13
ATOM     13  C   UNL     1      -2.766  11.457  10.312  0.00  0.00    +0.414 C 
ATOM     14  O   UNL     1      -2.732  10.245  10.104  0.00  0.00    -0.240 OA
ATOM     15  O   UNL     1      -3.347  12.190   9.511  0.00  0.00    -0.240 OA
ENDBRANCH   4  13
BRANCH   4  16
ATOM     16  O   UNL     1      -0.762  12.528  11.223  0.00  0.00    -0.343 OA
ATOM     17  C   UNL     1      -0.566  13.956  11.381  0.00  0.00    +0.198 C 
ENDBRANCH   4  16
BRANCH   6  18
ATOM     18  O   UNL     1      -4.897  13.904  13.338  0.00  0.00    -0.390 OA
ATOM     19  H   UNL     1      -5.783  13.984  12.975  0.00  0.00    +0.210 HD
ENDBRANCH   6  18
ENDBRANCH   1   2
BRANCH   1  20
ATOM     20  O   UNL     1      -2.472   9.969  15.452  0.00  0.00    -0.387 OA
ATOM     21  H   UNL     1      -2.135  10.861  15.332  0.00  0.00    +0.210 HD
ENDBRANCH   1  20
BRANCH   1  22
ATOM     22  C   UNL     1      -1.732   8.509  13.637  0.00  0.00    +0.163 C 
BRANCH  22  23
ATOM     23  O   UNL     1      -1.996   8.117  12.280  0.00  0.00    -0.388 OA
ATOM     24  H   UNL     1      -1.179   8.131  11.777  0.00  0.00    +0.210 HD
ENDBRANCH  22  23
BRANCH  22  25
ATOM     25  C   UNL     1      -1.613   7.274  14.524  0.00  0.00    +0.141 C 
BRANCH  25  28
ATOM     26  C   UNL     1      -3.846   6.233  14.710  0.00  0.00    +0.401 C 
ATOM     27  O   UNL     1      -3.804   5.719  13.590  0.00  0.00    -0.226 OA
ATOM     28  N   UNL     1      -2.869   6.981  15.225  0.00  0.00    -0.279 N 
ATOM     29  H   UNL     1      -3.000   7.367  16.149  0.00  0.00    +0.152 HD
BRANCH  26  30
ATOM     30  O   UNL     1      -5.005   6.031  15.523  0.00  0.00    -0.444 OA
BRANCH  30  31
ATOM     31  C   UNL     1      -5.783   7.231  15.551  0.00  0.00    +0.292 C 
BRANCH  31  33
ATOM     32  N   UNL     1      -4.609   8.493  17.331  0.00  0.00    -0.131 NA
ATOM     33  C   UNL     1      -5.734   7.845  16.892  0.00  0.00    +0.120 A 
ATOM     34  C   UNL     1      -6.694   7.892  17.878  0.00  0.00    +0.137 A 
ATOM     35  N   UNL     1      -6.091   8.576  18.890  0.00  0.00    -0.249 N 
ATOM     36  N   UNL     1      -4.838   8.932  18.561  0.00  0.00    -0.065 NA
BRANCH  35  37
ATOM     37  C   UNL     1      -6.644   8.930  20.178  0.00  0.00    +0.173 C 
BRANCH  37  38
ATOM     38  C   UNL     1      -6.344   7.891  21.251  0.00  0.00    +0.179 C 
BRANCH  38  39
ATOM     39  O   UNL     1      -4.957   7.555  21.271  0.00  0.00    -0.393 OA
ATOM     40  H   UNL     1      -4.781   7.030  20.467  0.00  0.00    +0.209 HD
ENDBRANCH  38  39
ENDBRANCH  37  38
ENDBRANCH  35  37
ENDBRANCH  31  33
ENDBRANCH  30  31
ENDBRANCH  26  30
ENDBRANCH  25  28
ENDBRANCH  22  25
ENDBRANCH   1  22
TORSDOF 16
