REMARK VINA RESULT:    -5.731      0.000      0.000
REMARK INTER + INTRA:         -15.382
REMARK INTER:                 -10.355
REMARK INTRA:                  -5.027
REMARK UNBOUND:                -3.788
REMARK  Name = lig_assembled_81.pdb
REMARK  22 active torsions:
REMARK  status: ('A' for Active; 'I' for Inactive)
REMARK    1  A    between atoms: _2  and  _12
REMARK    2  A    between atoms: _7  and  _30
REMARK    3  A    between atoms: _8  and  _24
REMARK    4  A    between atoms: _9  and  _10
REMARK    5  A    between atoms: _9  and  _30
REMARK    6  A    between atoms: _14  and  _15
REMARK    7  A    between atoms: _21  and  _22
REMARK    8  A    between atoms: _22  and  _23
REMARK    9  A    between atoms: _23  and  _25
REMARK   10  A    between atoms: _24  and  _25
REMARK   11  A    between atoms: _26  and  _46
REMARK   12  A    between atoms: _28  and  _34
REMARK   13  A    between atoms: _29  and  _33
REMARK   14  A    between atoms: _33  and  _34
REMARK   15  A    between atoms: _36  and  _37
REMARK   16  A    between atoms: _38  and  _39
REMARK   17  A    between atoms: _40  and  _42
REMARK   18  A    between atoms: _42  and  _43
REMARK   19  A    between atoms: _42  and  _44
REMARK   20  A    between atoms: _44  and  _45
REMARK   21  A    between atoms: _44  and  _46
REMARK   22  A    between atoms: _47  and  _49
REMARK                            x       y       z     vdW  Elec       q    Type
REMARK                         _______ _______ _______ _____ _____    ______ ____
ROOT
ATOM      1  C   UNL     1      -3.959   6.961  23.329  0.00  0.00    +0.401 C 
ATOM      2  O   UNL     1      -3.638   7.637  22.349  0.00  0.00    -0.226 OA
ATOM      3  N   UNL     1      -5.219   6.772  23.724  0.00  0.00    -0.279 N 
ATOM      4  H   UNL     1      -5.382   6.192  24.535  0.00  0.00    +0.152 HD
ENDROOT
BRANCH   1   5
ATOM      5  O   UNL     1      -2.935   6.327  24.101  0.00  0.00    -0.444 OA
BRANCH   5   6
ATOM      6  C   UNL     1      -3.520   5.696  25.244  0.00  0.00    +0.289 C 
BRANCH   6   8
ATOM      7  N   UNL     1      -1.923   7.052  26.519  0.00  0.00    -0.130 NA
ATOM      8  C   UNL     1      -3.118   6.399  26.479  0.00  0.00    +0.100 C 
ATOM      9  C   UNL     1      -3.730   6.521  27.712  0.00  0.00    +0.124 C 
ATOM     10  N   UNL     1      -2.914   7.389  28.425  0.00  0.00    -0.187 N 
ATOM     11  N   UNL     1      -1.760   7.524  27.743  0.00  0.00    -0.010 NA
BRANCH  10  12
ATOM     12  C   UNL     1      -3.111   7.900  29.752  0.00  0.00    +0.150 A 
ATOM     13  C   UNL     1      -3.259   9.266  30.098  0.00  0.00    +0.022 A 
ATOM     14  C   UNL     1      -3.358   9.482  31.498  0.00  0.00    +0.081 A 
ATOM     15  N   UNL     1      -3.242   8.461  32.389  0.00  0.00    -0.214 NA
ATOM     16  C   UNL     1      -3.078   7.226  31.944  0.00  0.00    +0.215 A 
ATOM     17  N   UNL     1      -2.872   6.223  32.861  0.00  0.00    -0.327 N 
ATOM     18  H   UNL     1      -3.224   6.481  33.771  0.00  0.00    +0.145 HD
ATOM     19  H   UNL     1      -3.106   5.317  32.485  0.00  0.00    +0.145 HD
ATOM     20  N   UNL     1      -3.103   6.893  30.668  0.00  0.00    -0.198 NA
BRANCH  14  21
ATOM     21  C   UNL     1      -3.569  10.791  32.225  0.00  0.00    +0.001 A 
ATOM     22  C   UNL     1      -4.766  11.183  32.853  0.00  0.00    +0.010 A 
ATOM     23  C   UNL     1      -4.897  12.410  33.526  0.00  0.00    +0.001 A 
ATOM     24  C   UNL     1      -3.818  13.265  33.648  0.00  0.00    +0.000 A 
ATOM     25  C   UNL     1      -2.596  12.896  33.091  0.00  0.00    +0.001 A 
ATOM     26  C   UNL     1      -2.487  11.689  32.385  0.00  0.00    +0.010 A 
ENDBRANCH  14  21
BRANCH  13  27
ATOM     27  C   UNL     1      -3.429  10.474  29.171  0.00  0.00    +0.069 C 
BRANCH  27  28
ATOM     28  C   UNL     1      -4.803  10.924  28.712  0.00  0.00    +0.164 C 
BRANCH  28  29
ATOM     29  O   UNL     1      -5.364  12.050  29.396  0.00  0.00    -0.380 OA
BRANCH  29  30
ATOM     30  C   UNL     1      -4.326  13.049  29.448  0.00  0.00    +0.156 C 
ATOM     31  C   UNL     1      -4.754  14.258  30.247  0.00  0.00    +0.034 C 
ENDBRANCH  29  30
ENDBRANCH  28  29
ENDBRANCH  27  28
ENDBRANCH  13  27
ENDBRANCH  10  12
ENDBRANCH   6   8
ENDBRANCH   5   6
ENDBRANCH   1   5
BRANCH   3  32
ATOM     32  C   UNL     1      -6.381   7.359  23.047  0.00  0.00    +0.141 C 
BRANCH  32  33
ATOM     33  C   UNL     1      -6.876   8.617  23.754  0.00  0.00    +0.163 C 
BRANCH  33  34
ATOM     34  O   UNL     1      -6.260   8.727  25.048  0.00  0.00    -0.388 OA
ATOM     35  H   UNL     1      -6.570   9.525  25.483  0.00  0.00    +0.210 HD
ENDBRANCH  33  34
BRANCH  33  36
ATOM     36  C   UNL     1      -6.562   9.850  22.889  0.00  0.00    +0.175 C 
BRANCH  36  37
ATOM     37  C   UNL     1      -5.168  10.423  23.183  0.00  0.00    +0.176 C 
ATOM     38  O   UNL     1      -5.284  11.318  24.323  0.00  0.00    -0.332 OA
ATOM     39  C   UNL     1      -4.024  11.881  24.818  0.00  0.00    +0.277 C 
ATOM     40  C   UNL     1      -3.262  12.590  23.671  0.00  0.00    +0.110 C 
ATOM     41  C   UNL     1      -3.141  11.688  22.425  0.00  0.00    +0.143 C 
ATOM     42  C   UNL     1      -4.509  11.155  21.999  0.00  0.00    +0.133 C 
BRANCH  42  43
ATOM     43  N   UNL     1      -4.371  10.228  20.865  0.00  0.00    -0.308 N 
ATOM     44  H   UNL     1      -3.900   9.349  21.028  0.00  0.00    +0.149 HD
ATOM     45  C   UNL     1      -4.826  10.473  19.633  0.00  0.00    +0.210 C 
ATOM     46  C   UNL     1      -5.515  11.832  19.410  0.00  0.00    +0.109 C 
ATOM     47  O   UNL     1      -4.709   9.672  18.705  0.00  0.00    -0.276 OA
ENDBRANCH  42  43
BRANCH  39  48
ATOM     48  C   UNL     1      -3.132  10.778  25.425  0.00  0.00    +0.414 C 
ATOM     49  O   UNL     1      -3.612   9.683  25.715  0.00  0.00    -0.240 OA
ATOM     50  O   UNL     1      -1.935  10.983  25.625  0.00  0.00    -0.240 OA
ENDBRANCH  39  48
BRANCH  39  51
ATOM     51  O   UNL     1      -4.341  12.867  25.834  0.00  0.00    -0.343 OA
ATOM     52  C   UNL     1      -5.644  13.488  25.698  0.00  0.00    +0.198 C 
ENDBRANCH  39  51
BRANCH  41  53
ATOM     53  O   UNL     1      -2.569  12.430  21.347  0.00  0.00    -0.390 OA
ATOM     54  H   UNL     1      -1.690  12.727  21.593  0.00  0.00    +0.210 HD
ENDBRANCH  41  53
ENDBRANCH  36  37
BRANCH  36  55
ATOM     55  O   UNL     1      -7.568  10.863  23.086  0.00  0.00    -0.387 OA
ATOM     56  H   UNL     1      -8.382  10.595  22.656  0.00  0.00    +0.210 HD
ENDBRANCH  36  55
ENDBRANCH  33  36
ENDBRANCH  32  33
ENDBRANCH   3  32
TORSDOF 19
