REMARK VINA RESULT:    -5.190      2.878      5.161
REMARK INTER + INTRA:         -11.850
REMARK INTER:                  -9.151
REMARK INTRA:                  -2.698
REMARK UNBOUND:                -2.867
REMARK  Name = lig_assembled_70.pdb
REMARK  16 active torsions:
REMARK  status: ('A' for Active; 'I' for Inactive)
REMARK    1  A    between atoms: _2  and  _10
REMARK    2  A    between atoms: _5  and  _22
REMARK    3  A    between atoms: _7  and  _8
REMARK    4  A    between atoms: _7  and  _22
REMARK    5  A    between atoms: _18  and  _38
REMARK    6  A    between atoms: _20  and  _26
REMARK    7  A    between atoms: _21  and  _25
REMARK    8  A    between atoms: _25  and  _26
REMARK    9  A    between atoms: _28  and  _29
REMARK   10  A    between atoms: _30  and  _31
REMARK   11  A    between atoms: _32  and  _34
REMARK   12  A    between atoms: _34  and  _35
REMARK   13  A    between atoms: _34  and  _36
REMARK   14  A    between atoms: _36  and  _37
REMARK   15  A    between atoms: _36  and  _38
REMARK   16  A    between atoms: _39  and  _41
REMARK                            x       y       z     vdW  Elec       q    Type
REMARK                         _______ _______ _______ _____ _____    ______ ____
ROOT
ATOM      1  C   UNL     1      -5.267   7.493  23.879  0.00  0.00    +0.163 C 
ENDROOT
BRANCH   1   2
ATOM      2  O   UNL     1      -4.071   6.917  24.431  0.00  0.00    -0.388 OA
ATOM      3  H   UNL     1      -4.292   6.412  25.217  0.00  0.00    +0.210 HD
ENDBRANCH   1   2
BRANCH   1   4
ATOM      4  C   UNL     1      -5.803   6.608  22.759  0.00  0.00    +0.141 C 
BRANCH   4   7
ATOM      5  C   UNL     1      -5.906   7.170  20.355  0.00  0.00    +0.401 C 
ATOM      6  O   UNL     1      -5.120   6.282  20.018  0.00  0.00    -0.226 OA
ATOM      7  N   UNL     1      -6.277   7.398  21.616  0.00  0.00    -0.279 N 
ATOM      8  H   UNL     1      -6.919   8.157  21.795  0.00  0.00    +0.152 HD
BRANCH   5   9
ATOM      9  O   UNL     1      -6.463   8.023  19.352  0.00  0.00    -0.444 OA
BRANCH   9  10
ATOM     10  C   UNL     1      -6.449   9.377  19.814  0.00  0.00    +0.292 C 
BRANCH  10  12
ATOM     11  N   UNL     1      -6.591  11.542  18.615  0.00  0.00    -0.131 NA
ATOM     12  C   UNL     1      -6.057  10.289  18.724  0.00  0.00    +0.121 A 
ATOM     13  C   UNL     1      -5.165  10.093  17.697  0.00  0.00    +0.143 A 
ATOM     14  N   UNL     1      -5.175  11.270  16.984  0.00  0.00    -0.218 N 
ATOM     15  N   UNL     1      -6.055  12.128  17.551  0.00  0.00    -0.060 NA
BRANCH  14  16
ATOM     16  C   UNL     1      -4.407  11.615  15.853  0.00  0.00    +0.086 A 
ATOM     17  C   UNL     1      -3.599  10.674  15.238  0.00  0.00    +0.139 A 
ATOM     18  N   UNL     1      -2.870  10.926  14.120  0.00  0.00    -0.253 NA
ATOM     19  C   UNL     1      -2.941  12.154  13.575  0.00  0.00    +0.071 A 
ATOM     20  C   UNL     1      -3.725  13.180  14.141  0.00  0.00    +0.002 A 
ATOM     21  C   UNL     1      -3.776  14.452  13.543  0.00  0.00    +0.010 A 
ATOM     22  C   UNL     1      -3.069  14.706  12.371  0.00  0.00    +0.001 A 
ATOM     23  C   UNL     1      -2.301  13.696  11.803  0.00  0.00    +0.002 A 
ATOM     24  C   UNL     1      -2.239  12.438  12.410  0.00  0.00    +0.028 A 
ATOM     25  C   UNL     1      -4.456  12.896  15.301  0.00  0.00    +0.039 A 
ENDBRANCH  14  16
ENDBRANCH  10  12
ENDBRANCH   9  10
ENDBRANCH   5   9
ENDBRANCH   4   7
ENDBRANCH   1   4
BRANCH   1  26
ATOM     26  C   UNL     1      -4.997   8.905  23.333  0.00  0.00    +0.175 C 
BRANCH  26  27
ATOM     27  C   UNL     1      -3.911   9.637  24.136  0.00  0.00    +0.176 C 
ATOM     28  O   UNL     1      -4.269   9.564  25.543  0.00  0.00    -0.332 OA
ATOM     29  C   UNL     1      -3.287  10.122  26.477  0.00  0.00    +0.277 C 
ATOM     30  C   UNL     1      -2.950  11.585  26.098  0.00  0.00    +0.110 C 
ATOM     31  C   UNL     1      -2.593  11.718  24.603  0.00  0.00    +0.143 C 
ATOM     32  C   UNL     1      -3.681  11.103  23.722  0.00  0.00    +0.133 C 
BRANCH  32  33
ATOM     33  N   UNL     1      -3.289  11.158  22.305  0.00  0.00    -0.308 N 
ATOM     34  H   UNL     1      -2.506  10.591  22.010  0.00  0.00    +0.149 HD
ATOM     35  C   UNL     1      -3.901  11.907  21.384  0.00  0.00    +0.210 C 
ATOM     36  C   UNL     1      -5.074  12.778  21.871  0.00  0.00    +0.109 C 
ATOM     37  O   UNL     1      -3.560  11.922  20.200  0.00  0.00    -0.276 OA
ENDBRANCH  32  33
BRANCH  29  38
ATOM     38  C   UNL     1      -1.994   9.280  26.480  0.00  0.00    +0.414 C 
ATOM     39  O   UNL     1      -0.902   9.821  26.645  0.00  0.00    -0.240 OA
ATOM     40  O   UNL     1      -2.044   8.060  26.317  0.00  0.00    -0.240 OA
ENDBRANCH  29  38
BRANCH  31  41
ATOM     41  O   UNL     1      -2.439  13.097  24.265  0.00  0.00    -0.390 OA
ATOM     42  H   UNL     1      -1.545  13.380  24.472  0.00  0.00    +0.210 HD
ENDBRANCH  31  41
BRANCH  29  43
ATOM     43  O   UNL     1      -3.875  10.117  27.804  0.00  0.00    -0.343 OA
ATOM     44  C   UNL     1      -4.606   8.912  28.145  0.00  0.00    +0.198 C 
ENDBRANCH  29  43
ENDBRANCH  26  27
BRANCH  26  45
ATOM     45  O   UNL     1      -6.214   9.677  23.327  0.00  0.00    -0.387 OA
ATOM     46  H   UNL     1      -6.158  10.369  23.990  0.00  0.00    +0.210 HD
ENDBRANCH  26  45
ENDBRANCH   1  26
TORSDOF 14
