REMARK VINA RESULT:    -4.993      3.495     10.976
REMARK INTER + INTRA:         -11.509
REMARK INTER:                  -8.814
REMARK INTRA:                  -2.695
REMARK UNBOUND:                -2.867
REMARK  Name = lig_assembled_70.pdb
REMARK  16 active torsions:
REMARK  status: ('A' for Active; 'I' for Inactive)
REMARK    1  A    between atoms: _2  and  _10
REMARK    2  A    between atoms: _5  and  _22
REMARK    3  A    between atoms: _7  and  _8
REMARK    4  A    between atoms: _7  and  _22
REMARK    5  A    between atoms: _18  and  _38
REMARK    6  A    between atoms: _20  and  _26
REMARK    7  A    between atoms: _21  and  _25
REMARK    8  A    between atoms: _25  and  _26
REMARK    9  A    between atoms: _28  and  _29
REMARK   10  A    between atoms: _30  and  _31
REMARK   11  A    between atoms: _32  and  _34
REMARK   12  A    between atoms: _34  and  _35
REMARK   13  A    between atoms: _34  and  _36
REMARK   14  A    between atoms: _36  and  _37
REMARK   15  A    between atoms: _36  and  _38
REMARK   16  A    between atoms: _39  and  _41
REMARK                            x       y       z     vdW  Elec       q    Type
REMARK                         _______ _______ _______ _____ _____    ______ ____
ROOT
ATOM      1  C   UNL     1      -5.738   8.277  25.090  0.00  0.00    +0.163 C 
ENDROOT
BRANCH   1   2
ATOM      2  O   UNL     1      -6.249   8.924  26.267  0.00  0.00    -0.388 OA
ATOM      3  H   UNL     1      -5.580   8.910  26.956  0.00  0.00    +0.210 HD
ENDBRANCH   1   2
BRANCH   1   4
ATOM      4  C   UNL     1      -4.245   8.009  25.248  0.00  0.00    +0.141 C 
BRANCH   4   7
ATOM      5  C   UNL     1      -2.595   7.959  27.086  0.00  0.00    +0.401 C 
ATOM      6  O   UNL     1      -1.801   7.236  26.480  0.00  0.00    -0.226 OA
ATOM      7  N   UNL     1      -3.764   8.364  26.589  0.00  0.00    -0.279 N 
ATOM      8  H   UNL     1      -4.352   8.947  27.167  0.00  0.00    +0.152 HD
BRANCH   5   9
ATOM      9  O   UNL     1      -2.266   8.397  28.407  0.00  0.00    -0.444 OA
BRANCH   9  10
ATOM     10  C   UNL     1      -3.467   8.619  29.150  0.00  0.00    +0.292 C 
BRANCH  10  12
ATOM     11  N   UNL     1      -2.677  10.074  30.995  0.00  0.00    -0.131 NA
ATOM     12  C   UNL     1      -3.408   9.914  29.853  0.00  0.00    +0.121 A 
ATOM     13  C   UNL     1      -4.012  11.108  29.537  0.00  0.00    +0.143 A 
ATOM     14  N   UNL     1      -3.606  11.983  30.518  0.00  0.00    -0.218 N 
ATOM     15  N   UNL     1      -2.809  11.333  31.396  0.00  0.00    -0.060 NA
BRANCH  14  16
ATOM     16  C   UNL     1      -3.906  13.356  30.645  0.00  0.00    +0.086 A 
ATOM     17  C   UNL     1      -3.074  14.193  31.370  0.00  0.00    +0.139 A 
ATOM     18  N   UNL     1      -3.278  15.530  31.495  0.00  0.00    -0.253 NA
ATOM     19  C   UNL     1      -4.341  16.074  30.875  0.00  0.00    +0.071 A 
ATOM     20  C   UNL     1      -5.252  15.297  30.129  0.00  0.00    +0.002 A 
ATOM     21  C   UNL     1      -6.352  15.900  29.494  0.00  0.00    +0.010 A 
ATOM     22  C   UNL     1      -6.543  17.277  29.577  0.00  0.00    +0.001 A 
ATOM     23  C   UNL     1      -5.644  18.049  30.304  0.00  0.00    +0.002 A 
ATOM     24  C   UNL     1      -4.562  17.443  30.948  0.00  0.00    +0.028 A 
ATOM     25  C   UNL     1      -5.024  13.919  30.028  0.00  0.00    +0.039 A 
ENDBRANCH  14  16
ENDBRANCH  10  12
ENDBRANCH   9  10
ENDBRANCH   5   9
ENDBRANCH   4   7
ENDBRANCH   1   4
BRANCH   1  26
ATOM     26  C   UNL     1      -5.976   9.141  23.840  0.00  0.00    +0.175 C 
BRANCH  26  27
ATOM     27  C   UNL     1      -5.044  10.361  23.794  0.00  0.00    +0.176 C 
ATOM     28  O   UNL     1      -5.442  11.267  24.859  0.00  0.00    -0.332 OA
ATOM     29  C   UNL     1      -4.591  12.448  25.037  0.00  0.00    +0.277 C 
ATOM     30  C   UNL     1      -4.463  13.228  23.706  0.00  0.00    +0.110 C 
ATOM     31  C   UNL     1      -4.072  12.300  22.537  0.00  0.00    +0.143 C 
ATOM     32  C   UNL     1      -5.021  11.104  22.446  0.00  0.00    +0.133 C 
BRANCH  32  33
ATOM     33  N   UNL     1      -4.588  10.182  21.384  0.00  0.00    -0.308 N 
ATOM     34  H   UNL     1      -3.679   9.750  21.476  0.00  0.00    +0.149 HD
ATOM     35  C   UNL     1      -5.316   9.880  20.306  0.00  0.00    +0.210 C 
ATOM     36  C   UNL     1      -6.685  10.575  20.181  0.00  0.00    +0.109 C 
ATOM     37  O   UNL     1      -4.934   9.092  19.440  0.00  0.00    -0.276 OA
ENDBRANCH  32  33
BRANCH  29  38
ATOM     38  C   UNL     1      -3.188  12.041  25.533  0.00  0.00    +0.414 C 
ATOM     39  O   UNL     1      -2.183  12.438  24.945  0.00  0.00    -0.240 OA
ATOM     40  O   UNL     1      -3.061  11.317  26.522  0.00  0.00    -0.240 OA
ENDBRANCH  29  38
BRANCH  31  41
ATOM     41  O   UNL     1      -4.114  13.028  21.309  0.00  0.00    -0.390 OA
ATOM     42  H   UNL     1      -4.013  13.965  21.489  0.00  0.00    +0.210 HD
ENDBRANCH  31  41
BRANCH  29  43
ATOM     43  O   UNL     1      -5.223  13.313  26.015  0.00  0.00    -0.343 OA
ATOM     44  C   UNL     1      -6.375  12.742  26.684  0.00  0.00    +0.198 C 
ENDBRANCH  29  43
ENDBRANCH  26  27
BRANCH  26  45
ATOM     45  O   UNL     1      -7.353   9.566  23.785  0.00  0.00    -0.387 OA
ATOM     46  H   UNL     1      -7.600   9.962  24.624  0.00  0.00    +0.210 HD
ENDBRANCH  26  45
ENDBRANCH   1  26
TORSDOF 14
