REMARK VINA RESULT:    -4.679      2.555      5.935
REMARK INTER + INTRA:         -12.306
REMARK INTER:                  -7.800
REMARK INTRA:                  -4.506
REMARK UNBOUND:                -3.114
REMARK  Name = lig_assembled_10.pdb
REMARK  21 active torsions:
REMARK  status: ('A' for Active; 'I' for Inactive)
REMARK    1  A    between atoms: _2  and  _9
REMARK    2  A    between atoms: _4  and  _20
REMARK    3  A    between atoms: _5  and  _9
REMARK    4  A    between atoms: _5  and  _12
REMARK    5  A    between atoms: _6  and  _7
REMARK    6  A    between atoms: _6  and  _20
REMARK    7  A    between atoms: _9  and  _10
REMARK    8  A    between atoms: _10  and  _11
REMARK    9  A    between atoms: _11  and  _14
REMARK   10  A    between atoms: _16  and  _36
REMARK   11  A    between atoms: _18  and  _24
REMARK   12  A    between atoms: _19  and  _23
REMARK   13  A    between atoms: _23  and  _24
REMARK   14  A    between atoms: _26  and  _27
REMARK   15  A    between atoms: _28  and  _29
REMARK   16  A    between atoms: _30  and  _32
REMARK   17  A    between atoms: _32  and  _33
REMARK   18  A    between atoms: _32  and  _34
REMARK   19  A    between atoms: _34  and  _35
REMARK   20  A    between atoms: _34  and  _36
REMARK   21  A    between atoms: _37  and  _39
REMARK                            x       y       z     vdW  Elec       q    Type
REMARK                         _______ _______ _______ _____ _____    ______ ____
ROOT
ATOM      1  C   UNL     1      -3.394  10.814  30.424  0.00  0.00    +0.163 C 
ENDROOT
BRANCH   1   2
ATOM      2  O   UNL     1      -2.971  10.670  29.059  0.00  0.00    -0.388 OA
ATOM      3  H   UNL     1      -2.558   9.812  28.940  0.00  0.00    +0.210 HD
ENDBRANCH   1   2
BRANCH   1   4
ATOM      4  C   UNL     1      -3.810  12.265  30.721  0.00  0.00    +0.175 C 
BRANCH   4   5
ATOM      5  C   UNL     1      -5.079  12.670  29.957  0.00  0.00    +0.176 C 
ATOM      6  O   UNL     1      -4.771  12.650  28.536  0.00  0.00    -0.332 OA
ATOM      7  C   UNL     1      -5.901  12.910  27.638  0.00  0.00    +0.277 C 
ATOM      8  C   UNL     1      -6.587  14.248  28.006  0.00  0.00    +0.110 C 
ATOM      9  C   UNL     1      -6.905  14.330  29.513  0.00  0.00    +0.143 C 
ATOM     10  C   UNL     1      -5.661  14.040  30.354  0.00  0.00    +0.133 C 
BRANCH  10  11
ATOM     11  N   UNL     1      -5.997  14.035  31.786  0.00  0.00    -0.308 N 
ATOM     12  H   UNL     1      -6.689  13.372  32.106  0.00  0.00    +0.149 HD
ATOM     13  C   UNL     1      -5.446  14.849  32.691  0.00  0.00    +0.210 C 
ATOM     14  C   UNL     1      -4.414  15.865  32.167  0.00  0.00    +0.109 C 
ATOM     15  O   UNL     1      -5.736  14.812  33.887  0.00  0.00    -0.276 OA
ENDBRANCH  10  11
BRANCH   7  16
ATOM     16  C   UNL     1      -6.932  11.765  27.711  0.00  0.00    +0.414 C 
ATOM     17  O   UNL     1      -6.558  10.593  27.724  0.00  0.00    -0.240 OA
ATOM     18  O   UNL     1      -8.138  12.013  27.757  0.00  0.00    -0.240 OA
ENDBRANCH   7  16
BRANCH   7  19
ATOM     19  O   UNL     1      -5.384  13.016  26.286  0.00  0.00    -0.343 OA
ATOM     20  C   UNL     1      -6.181  13.831  25.389  0.00  0.00    +0.198 C 
ENDBRANCH   7  19
BRANCH   9  21
ATOM     21  O   UNL     1      -7.395  15.633  29.832  0.00  0.00    -0.390 OA
ATOM     22  H   UNL     1      -8.172  15.555  30.391  0.00  0.00    +0.210 HD
ENDBRANCH   9  21
ENDBRANCH   4   5
BRANCH   4  23
ATOM     23  O   UNL     1      -2.731  13.166  30.404  0.00  0.00    -0.387 OA
ATOM     24  H   UNL     1      -2.172  12.772  29.731  0.00  0.00    +0.210 HD
ENDBRANCH   4  23
ENDBRANCH   1   4
BRANCH   1  25
ATOM     25  C   UNL     1      -4.565   9.880  30.709  0.00  0.00    +0.141 C 
BRANCH  25  28
ATOM     26  C   UNL     1      -4.598   7.764  29.433  0.00  0.00    +0.401 C 
ATOM     27  O   UNL     1      -3.988   7.126  30.294  0.00  0.00    -0.226 OA
ATOM     28  N   UNL     1      -4.905   9.057  29.542  0.00  0.00    -0.279 N 
ATOM     29  H   UNL     1      -5.400   9.496  28.778  0.00  0.00    +0.152 HD
BRANCH  26  30
ATOM     30  O   UNL     1      -5.008   7.098  28.236  0.00  0.00    -0.444 OA
BRANCH  30  31
ATOM     31  C   UNL     1      -3.855   6.741  27.469  0.00  0.00    +0.292 C 
BRANCH  31  33
ATOM     32  N   UNL     1      -2.021   8.362  27.089  0.00  0.00    -0.131 NA
ATOM     33  C   UNL     1      -3.290   7.933  26.810  0.00  0.00    +0.120 A 
ATOM     34  C   UNL     1      -3.852   8.769  25.871  0.00  0.00    +0.138 A 
ATOM     35  N   UNL     1      -2.864   9.661  25.586  0.00  0.00    -0.237 N 
ATOM     36  N   UNL     1      -1.772   9.426  26.341  0.00  0.00    -0.065 NA
BRANCH  35  37
ATOM     37  C   UNL     1      -2.821  10.764  24.639  0.00  0.00    +0.227 C 
BRANCH  37  38
ATOM     38  C   UNL     1      -2.620  12.126  25.268  0.00  0.00    +0.330 C 
ATOM     39  O   UNL     1      -2.535  13.143  24.589  0.00  0.00    -0.249 OA
BRANCH  38  40
ATOM     40  O   UNL     1      -2.582  12.189  26.615  0.00  0.00    -0.479 OA
ATOM     41  H   UNL     1      -3.028  12.968  27.038  0.00  0.00    +0.295 HD
ENDBRANCH  38  40
ENDBRANCH  37  38
BRANCH  37  42
ATOM     42  C   UNL     1      -3.960  10.758  23.611  0.00  0.00    +0.158 C 
BRANCH  42  43
ATOM     43  C   UNL     1      -3.448  10.733  22.198  0.00  0.00    +0.307 C 
ATOM     44  O   UNL     1      -3.696   9.835  21.402  0.00  0.00    -0.251 OA
BRANCH  43  45
ATOM     45  O   UNL     1      -2.753  11.833  21.856  0.00  0.00    -0.481 OA
ATOM     46  H   UNL     1      -2.105  12.140  22.520  0.00  0.00    +0.295 HD
ENDBRANCH  43  45
ENDBRANCH  42  43
ENDBRANCH  37  42
ENDBRANCH  35  37
ENDBRANCH  31  33
ENDBRANCH  30  31
ENDBRANCH  26  30
ENDBRANCH  25  28
ENDBRANCH   1  25
TORSDOF 19
