REMARK VINA RESULT:    -4.216      3.763      6.814
REMARK INTER + INTRA:         -11.223
REMARK INTER:                  -7.413
REMARK INTRA:                  -3.810
REMARK UNBOUND:                -3.679
REMARK  Name = lig_assembled_0.pdb
REMARK  17 active torsions:
REMARK  status: ('A' for Active; 'I' for Inactive)
REMARK    1  A    between atoms: _2  and  _10
REMARK    2  A    between atoms: _5  and  _21
REMARK    3  A    between atoms: _7  and  _8
REMARK    4  A    between atoms: _7  and  _21
REMARK    5  A    between atoms: _11  and  _12
REMARK    6  A    between atoms: _17  and  _37
REMARK    7  A    between atoms: _19  and  _25
REMARK    8  A    between atoms: _20  and  _24
REMARK    9  A    between atoms: _24  and  _25
REMARK   10  A    between atoms: _27  and  _28
REMARK   11  A    between atoms: _29  and  _30
REMARK   12  A    between atoms: _31  and  _33
REMARK   13  A    between atoms: _33  and  _34
REMARK   14  A    between atoms: _33  and  _35
REMARK   15  A    between atoms: _35  and  _36
REMARK   16  A    between atoms: _35  and  _37
REMARK   17  A    between atoms: _38  and  _40
REMARK                            x       y       z     vdW  Elec       q    Type
REMARK                         _______ _______ _______ _____ _____    ______ ____
ROOT
ATOM      1  C   UNL     1      -4.268   6.377  17.025  0.00  0.00    +0.163 C 
ENDROOT
BRANCH   1   2
ATOM      2  O   UNL     1      -3.513   5.277  16.489  0.00  0.00    -0.388 OA
ATOM      3  H   UNL     1      -3.259   4.685  17.201  0.00  0.00    +0.210 HD
ENDBRANCH   1   2
BRANCH   1   4
ATOM      4  C   UNL     1      -5.499   5.856  17.758  0.00  0.00    +0.141 C 
BRANCH   4   7
ATOM      5  C   UNL     1      -7.279   6.878  19.134  0.00  0.00    +0.401 C 
ATOM      6  O   UNL     1      -8.162   6.122  18.722  0.00  0.00    -0.226 OA
ATOM      7  N   UNL     1      -6.008   6.829  18.732  0.00  0.00    -0.279 N 
ATOM      8  H   UNL     1      -5.359   7.498  19.121  0.00  0.00    +0.152 HD
BRANCH   5   9
ATOM      9  O   UNL     1      -7.617   7.880  20.097  0.00  0.00    -0.444 OA
BRANCH   9  10
ATOM     10  C   UNL     1      -7.421   7.360  21.415  0.00  0.00    +0.292 C 
BRANCH  10  12
ATOM     11  N   UNL     1      -4.999   7.626  21.804  0.00  0.00    -0.131 NA
ATOM     12  C   UNL     1      -6.276   8.025  22.064  0.00  0.00    +0.121 A 
ATOM     13  C   UNL     1      -6.248   9.081  22.946  0.00  0.00    +0.143 A 
ATOM     14  N   UNL     1      -4.921   9.237  23.278  0.00  0.00    -0.219 N 
ATOM     15  N   UNL     1      -4.181   8.398  22.502  0.00  0.00    -0.060 NA
BRANCH  14  16
ATOM     16  C   UNL     1      -4.282  10.162  24.152  0.00  0.00    +0.079 A 
ATOM     17  C   UNL     1      -3.632  11.342  23.739  0.00  0.00    +0.062 A 
ATOM     18  C   UNL     1      -3.002  12.148  24.712  0.00  0.00    +0.015 A 
ATOM     19  C   UNL     1      -3.000  11.792  26.061  0.00  0.00    +0.001 A 
ATOM     20  C   UNL     1      -3.652  10.638  26.469  0.00  0.00    +0.002 A 
ATOM     21  C   UNL     1      -4.297   9.836  25.528  0.00  0.00    +0.028 A 
BRANCH  17  22
ATOM     22  C   UNL     1      -3.719  11.905  22.362  0.00  0.00    +0.244 C 
ATOM     23  O   UNL     1      -4.369  12.906  22.106  0.00  0.00    -0.270 OA
ATOM     24  N   UNL     1      -3.004  11.280  21.375  0.00  0.00    -0.325 N 
ATOM     25  H   UNL     1      -3.028  11.699  20.453  0.00  0.00    +0.145 HD
ATOM     26  H   UNL     1      -2.433  10.459  21.508  0.00  0.00    +0.145 HD
ENDBRANCH  17  22
ENDBRANCH  14  16
ENDBRANCH  10  12
ENDBRANCH   9  10
ENDBRANCH   5   9
ENDBRANCH   4   7
ENDBRANCH   1   4
BRANCH   1  27
ATOM     27  C   UNL     1      -4.703   7.341  15.908  0.00  0.00    +0.175 C 
BRANCH  27  28
ATOM     28  C   UNL     1      -4.464   8.810  16.287  0.00  0.00    +0.176 C 
ATOM     29  O   UNL     1      -5.749   9.399  16.626  0.00  0.00    -0.332 OA
ATOM     30  C   UNL     1      -5.704  10.780  17.118  0.00  0.00    +0.277 C 
ATOM     31  C   UNL     1      -4.960  11.689  16.109  0.00  0.00    +0.110 C 
ATOM     32  C   UNL     1      -3.601  11.088  15.694  0.00  0.00    +0.143 C 
ATOM     33  C   UNL     1      -3.765   9.650  15.202  0.00  0.00    +0.133 C 
BRANCH  33  34
ATOM     34  N   UNL     1      -2.454   9.059  14.892  0.00  0.00    -0.308 N 
ATOM     35  H   UNL     1      -1.776   8.997  15.639  0.00  0.00    +0.149 HD
ATOM     36  C   UNL     1      -2.101   8.599  13.688  0.00  0.00    +0.210 C 
ATOM     37  C   UNL     1      -3.147   8.732  12.565  0.00  0.00    +0.109 C 
ATOM     38  O   UNL     1      -1.000   8.096  13.461  0.00  0.00    -0.276 OA
ENDBRANCH  33  34
BRANCH  30  39
ATOM     39  C   UNL     1      -5.000  10.848  18.490  0.00  0.00    +0.414 C 
ATOM     40  O   UNL     1      -5.000   9.870  19.236  0.00  0.00    -0.240 OA
ATOM     41  O   UNL     1      -4.434  11.881  18.850  0.00  0.00    -0.240 OA
ENDBRANCH  30  39
BRANCH  32  42
ATOM     42  O   UNL     1      -3.022  11.878  14.655  0.00  0.00    -0.390 OA
ATOM     43  H   UNL     1      -3.144  11.437  13.811  0.00  0.00    +0.210 HD
ENDBRANCH  32  42
BRANCH  30  44
ATOM     44  O   UNL     1      -7.068  11.256  17.245  0.00  0.00    -0.343 OA
ATOM     45  C   UNL     1      -8.044  10.238  17.580  0.00  0.00    +0.198 C 
ENDBRANCH  30  44
ENDBRANCH  27  28
BRANCH  27  46
ATOM     46  O   UNL     1      -6.093   7.131  15.585  0.00  0.00    -0.387 OA
ATOM     47  H   UNL     1      -6.597   7.916  15.814  0.00  0.00    +0.210 HD
ENDBRANCH  27  46
ENDBRANCH   1  27
TORSDOF 15
