REMARK VINA RESULT:    -4.258      2.468      5.546
REMARK INTER + INTRA:         -11.989
REMARK INTER:                  -8.193
REMARK INTRA:                  -3.796
REMARK UNBOUND:                -3.997
REMARK  Name = lig_assembled_68.pdb
REMARK  19 active torsions:
REMARK  status: ('A' for Active; 'I' for Inactive)
REMARK    1  A    between atoms: _2  and  _9
REMARK    2  A    between atoms: _4  and  _21
REMARK    3  A    between atoms: _6  and  _7
REMARK    4  A    between atoms: _6  and  _21
REMARK    5  A    between atoms: _9  and  _10
REMARK    6  A    between atoms: _10  and  _11
REMARK    7  A    between atoms: _10  and  _16
REMARK    8  A    between atoms: _17  and  _37
REMARK    9  A    between atoms: _19  and  _25
REMARK   10  A    between atoms: _20  and  _24
REMARK   11  A    between atoms: _24  and  _25
REMARK   12  A    between atoms: _27  and  _28
REMARK   13  A    between atoms: _29  and  _30
REMARK   14  A    between atoms: _31  and  _33
REMARK   15  A    between atoms: _33  and  _34
REMARK   16  A    between atoms: _33  and  _35
REMARK   17  A    between atoms: _35  and  _36
REMARK   18  A    between atoms: _35  and  _37
REMARK   19  A    between atoms: _38  and  _40
REMARK                            x       y       z     vdW  Elec       q    Type
REMARK                         _______ _______ _______ _____ _____    ______ ____
ROOT
ATOM      1  C   UNL     1      -1.922  10.384  26.813  0.00  0.00    +0.163 C 
ENDROOT
BRANCH   1   2
ATOM      2  O   UNL     1      -2.006  10.072  25.413  0.00  0.00    -0.388 OA
ATOM      3  H   UNL     1      -1.314   9.447  25.182  0.00  0.00    +0.210 HD
ENDBRANCH   1   2
BRANCH   1   4
ATOM      4  C   UNL     1      -3.214  11.061  27.303  0.00  0.00    +0.175 C 
BRANCH   4   5
ATOM      5  C   UNL     1      -4.087  11.552  26.139  0.00  0.00    +0.176 C 
ATOM      6  O   UNL     1      -3.262  12.391  25.284  0.00  0.00    -0.332 OA
ATOM      7  C   UNL     1      -3.903  12.868  24.055  0.00  0.00    +0.277 C 
ATOM      8  C   UNL     1      -5.228  13.599  24.385  0.00  0.00    +0.110 C 
ATOM      9  C   UNL     1      -6.125  12.759  25.318  0.00  0.00    +0.143 C 
ATOM     10  C   UNL     1      -5.357  12.313  26.562  0.00  0.00    +0.133 C 
BRANCH  10  11
ATOM     11  N   UNL     1      -6.196  11.442  27.401  0.00  0.00    -0.308 N 
ATOM     12  H   UNL     1      -6.477  10.550  27.019  0.00  0.00    +0.149 HD
ATOM     13  C   UNL     1      -6.609  11.753  28.632  0.00  0.00    +0.210 C 
ATOM     14  C   UNL     1      -6.185  13.131  29.174  0.00  0.00    +0.109 C 
ATOM     15  O   UNL     1      -7.299  10.997  29.317  0.00  0.00    -0.276 OA
ENDBRANCH  10  11
BRANCH   7  16
ATOM     16  C   UNL     1      -4.187  11.694  23.095  0.00  0.00    +0.414 C 
ATOM     17  O   UNL     1      -5.268  11.617  22.512  0.00  0.00    -0.240 OA
ATOM     18  O   UNL     1      -3.336  10.825  22.904  0.00  0.00    -0.240 OA
ENDBRANCH   7  16
BRANCH   7  19
ATOM     19  O   UNL     1      -3.005  13.813  23.419  0.00  0.00    -0.343 OA
ATOM     20  C   UNL     1      -3.600  14.604  22.358  0.00  0.00    +0.198 C 
ENDBRANCH   7  19
BRANCH   9  21
ATOM     21  O   UNL     1      -7.260  13.529  25.716  0.00  0.00    -0.390 OA
ATOM     22  H   UNL     1      -7.420  13.403  26.654  0.00  0.00    +0.210 HD
ENDBRANCH   9  21
ENDBRANCH   4   5
BRANCH   4  23
ATOM     23  O   UNL     1      -2.896  12.158  28.183  0.00  0.00    -0.387 OA
ATOM     24  H   UNL     1      -2.494  11.819  28.986  0.00  0.00    +0.210 HD
ENDBRANCH   4  23
ENDBRANCH   1   4
BRANCH   1  25
ATOM     25  C   UNL     1      -1.677   9.112  27.617  0.00  0.00    +0.141 C 
BRANCH  25  28
ATOM     26  C   UNL     1      -2.681   7.912  29.530  0.00  0.00    +0.401 C 
ATOM     27  O   UNL     1      -1.776   7.077  29.602  0.00  0.00    -0.226 OA
ATOM     28  N   UNL     1      -2.718   8.895  28.629  0.00  0.00    -0.279 N 
ATOM     29  H   UNL     1      -3.508   9.525  28.644  0.00  0.00    +0.152 HD
BRANCH  26  30
ATOM     30  O   UNL     1      -3.768   7.840  30.456  0.00  0.00    -0.444 OA
BRANCH  30  31
ATOM     31  C   UNL     1      -3.303   8.176  31.766  0.00  0.00    +0.292 C 
BRANCH  31  33
ATOM     32  N   UNL     1      -4.784  10.165  31.741  0.00  0.00    -0.131 NA
ATOM     33  C   UNL     1      -3.580   9.592  32.065  0.00  0.00    +0.120 A 
ATOM     34  C   UNL     1      -2.777  10.539  32.656  0.00  0.00    +0.137 A 
ATOM     35  N   UNL     1      -3.551  11.662  32.672  0.00  0.00    -0.249 N 
ATOM     36  N   UNL     1      -4.752  11.438  32.112  0.00  0.00    -0.065 NA
BRANCH  35  37
ATOM     37  C   UNL     1      -3.174  12.991  33.108  0.00  0.00    +0.181 C 
BRANCH  37  38
ATOM     38  C   UNL     1      -2.933  13.940  31.927  0.00  0.00    +0.166 C 
BRANCH  38  39
ATOM     39  C   UNL     1      -4.037  14.964  31.709  0.00  0.00    -0.017 A 
ATOM     40  C   UNL     1      -3.871  15.941  30.709  0.00  0.00    +0.006 A 
ATOM     41  C   UNL     1      -4.871  16.883  30.458  0.00  0.00    +0.000 A 
ATOM     42  C   UNL     1      -6.052  16.862  31.194  0.00  0.00    +0.000 A 
ATOM     43  C   UNL     1      -6.241  15.893  32.173  0.00  0.00    +0.000 A 
ATOM     44  C   UNL     1      -5.243  14.947  32.427  0.00  0.00    +0.006 A 
ENDBRANCH  38  39
BRANCH  38  45
ATOM     45  O   UNL     1      -2.804  13.169  30.727  0.00  0.00    -0.385 OA
ATOM     46  H   UNL     1      -3.621  12.658  30.605  0.00  0.00    +0.210 HD
ENDBRANCH  38  45
ENDBRANCH  37  38
ENDBRANCH  35  37
ENDBRANCH  31  33
ENDBRANCH  30  31
ENDBRANCH  26  30
ENDBRANCH  25  28
ENDBRANCH   1  25
TORSDOF 17
