REMARK VINA RESULT:    -5.064      2.441      3.362
REMARK INTER + INTRA:         -12.466
REMARK INTER:                  -9.357
REMARK INTRA:                  -3.108
REMARK UNBOUND:                -3.108
REMARK  Name = lig_assembled_58.pdb
REMARK  18 active torsions:
REMARK  status: ('A' for Active; 'I' for Inactive)
REMARK    1  A    between atoms: _2  and  _9
REMARK    2  A    between atoms: _4  and  _25
REMARK    3  A    between atoms: _6  and  _7
REMARK    4  A    between atoms: _6  and  _25
REMARK    5  A    between atoms: _9  and  _10
REMARK    6  A    between atoms: _9  and  _16
REMARK    7  A    between atoms: _21  and  _41
REMARK    8  A    between atoms: _23  and  _29
REMARK    9  A    between atoms: _24  and  _28
REMARK   10  A    between atoms: _28  and  _29
REMARK   11  A    between atoms: _31  and  _32
REMARK   12  A    between atoms: _33  and  _34
REMARK   13  A    between atoms: _35  and  _37
REMARK   14  A    between atoms: _37  and  _38
REMARK   15  A    between atoms: _37  and  _39
REMARK   16  A    between atoms: _39  and  _40
REMARK   17  A    between atoms: _39  and  _41
REMARK   18  A    between atoms: _42  and  _44
REMARK                            x       y       z     vdW  Elec       q    Type
REMARK                         _______ _______ _______ _____ _____    ______ ____
ROOT
ATOM      1  C   UNL     1      -7.026  12.157  16.530  0.00  0.00    +0.141 C 
ENDROOT
BRANCH   1   4
ATOM      2  C   UNL     1      -7.597  10.667  18.416  0.00  0.00    +0.401 C 
ATOM      3  O   UNL     1      -8.248   9.882  17.721  0.00  0.00    -0.226 OA
ATOM      4  N   UNL     1      -6.997  11.760  17.942  0.00  0.00    -0.279 N 
ATOM      5  H   UNL     1      -6.494  12.347  18.593  0.00  0.00    +0.152 HD
BRANCH   2   6
ATOM      6  O   UNL     1      -7.469  10.412  19.817  0.00  0.00    -0.444 OA
BRANCH   6   7
ATOM      7  C   UNL     1      -6.208   9.788  20.075  0.00  0.00    +0.292 C 
BRANCH   7   9
ATOM      8  N   UNL     1      -4.282  11.314  19.704  0.00  0.00    -0.131 NA
ATOM      9  C   UNL     1      -5.230  10.788  20.541  0.00  0.00    +0.120 A 
ATOM     10  C   UNL     1      -5.103  11.370  21.781  0.00  0.00    +0.138 A 
ATOM     11  N   UNL     1      -4.169  12.353  21.599  0.00  0.00    -0.240 N 
ATOM     12  N   UNL     1      -3.623  12.257  20.365  0.00  0.00    -0.064 NA
BRANCH  11  13
ATOM     13  C   UNL     1      -3.761  13.437  22.511  0.00  0.00    +0.169 C 
BRANCH  13  14
ATOM     14  C   UNL     1      -4.532  14.722  22.177  0.00  0.00    -0.019 A 
ATOM     15  C   UNL     1      -3.903  15.973  22.291  0.00  0.00    +0.006 A 
ATOM     16  C   UNL     1      -4.612  17.152  22.045  0.00  0.00    +0.000 A 
ATOM     17  C   UNL     1      -5.953  17.101  21.669  0.00  0.00    +0.000 A 
ATOM     18  C   UNL     1      -6.595  15.872  21.553  0.00  0.00    +0.000 A 
ATOM     19  C   UNL     1      -5.894  14.696  21.815  0.00  0.00    +0.006 A 
ENDBRANCH  13  14
BRANCH  13  20
ATOM     20  C   UNL     1      -3.809  13.019  23.988  0.00  0.00    -0.019 A 
ATOM     21  C   UNL     1      -2.720  12.371  24.597  0.00  0.00    +0.006 A 
ATOM     22  C   UNL     1      -2.771  11.991  25.942  0.00  0.00    +0.000 A 
ATOM     23  C   UNL     1      -3.899  12.271  26.706  0.00  0.00    +0.000 A 
ATOM     24  C   UNL     1      -4.964  12.959  26.140  0.00  0.00    +0.000 A 
ATOM     25  C   UNL     1      -4.912  13.345  24.802  0.00  0.00    +0.006 A 
ENDBRANCH  13  20
ENDBRANCH  11  13
ENDBRANCH   7   9
ENDBRANCH   6   7
ENDBRANCH   2   6
ENDBRANCH   1   4
BRANCH   1  26
ATOM     26  C   UNL     1      -5.767  11.716  15.789  0.00  0.00    +0.163 C 
BRANCH  26  27
ATOM     27  O   UNL     1      -4.694  11.511  16.723  0.00  0.00    -0.388 OA
ATOM     28  H   UNL     1      -4.021  10.957  16.320  0.00  0.00    +0.210 HD
ENDBRANCH  26  27
BRANCH  26  29
ATOM     29  C   UNL     1      -6.061  10.430  14.998  0.00  0.00    +0.175 C 
BRANCH  29  30
ATOM     30  C   UNL     1      -5.234  10.344  13.707  0.00  0.00    +0.176 C 
ATOM     31  O   UNL     1      -3.881   9.952  14.068  0.00  0.00    -0.332 OA
ATOM     32  C   UNL     1      -2.968   9.716  12.945  0.00  0.00    +0.277 C 
ATOM     33  C   UNL     1      -2.924  10.953  12.014  0.00  0.00    +0.110 C 
ATOM     34  C   UNL     1      -4.341  11.427  11.629  0.00  0.00    +0.143 C 
ATOM     35  C   UNL     1      -5.206  11.638  12.872  0.00  0.00    +0.133 C 
BRANCH  35  36
ATOM     36  N   UNL     1      -6.578  12.005  12.489  0.00  0.00    -0.308 N 
ATOM     37  H   UNL     1      -7.153  11.296  12.055  0.00  0.00    +0.149 HD
ATOM     38  C   UNL     1      -7.115  13.214  12.676  0.00  0.00    +0.210 C 
ATOM     39  C   UNL     1      -6.205  14.280  13.315  0.00  0.00    +0.109 C 
ATOM     40  O   UNL     1      -8.272  13.489  12.358  0.00  0.00    -0.276 OA
ENDBRANCH  35  36
BRANCH  32  41
ATOM     41  C   UNL     1      -3.406   8.478  12.135  0.00  0.00    +0.414 C 
ATOM     42  O   UNL     1      -2.902   8.245  11.037  0.00  0.00    -0.240 OA
ATOM     43  O   UNL     1      -4.261   7.711  12.580  0.00  0.00    -0.240 OA
ENDBRANCH  32  41
BRANCH  34  44
ATOM     44  O   UNL     1      -4.258  12.652  10.900  0.00  0.00    -0.390 OA
ATOM     45  H   UNL     1      -5.067  13.154  11.023  0.00  0.00    +0.210 HD
ENDBRANCH  34  44
BRANCH  32  46
ATOM     46  O   UNL     1      -1.639   9.502  13.485  0.00  0.00    -0.343 OA
ATOM     47  C   UNL     1      -1.519   8.373  14.387  0.00  0.00    +0.198 C 
ENDBRANCH  32  46
ENDBRANCH  29  30
BRANCH  29  48
ATOM     48  O   UNL     1      -7.468  10.345  14.693  0.00  0.00    -0.387 OA
ATOM     49  H   UNL     1      -7.884  11.193  14.862  0.00  0.00    +0.210 HD
ENDBRANCH  29  48
ENDBRANCH  26  29
ENDBRANCH   1  26
TORSDOF 16
