REMARK VINA RESULT:    -5.119      1.492      1.925
REMARK INTER + INTRA:         -12.765
REMARK INTER:                 -10.361
REMARK INTRA:                  -2.404
REMARK UNBOUND:                -3.157
REMARK  Name = lig_assembled_64.pdb
REMARK  19 active torsions:
REMARK  status: ('A' for Active; 'I' for Inactive)
REMARK    1  A    between atoms: _2  and  _10
REMARK    2  A    between atoms: _5  and  _27
REMARK    3  A    between atoms: _7  and  _8
REMARK    4  A    between atoms: _7  and  _27
REMARK    5  A    between atoms: _12  and  _13
REMARK    6  A    between atoms: _13  and  _21
REMARK    7  A    between atoms: _14  and  _15
REMARK    8  A    between atoms: _23  and  _43
REMARK    9  A    between atoms: _25  and  _31
REMARK   10  A    between atoms: _26  and  _30
REMARK   11  A    between atoms: _30  and  _31
REMARK   12  A    between atoms: _33  and  _34
REMARK   13  A    between atoms: _35  and  _36
REMARK   14  A    between atoms: _37  and  _39
REMARK   15  A    between atoms: _39  and  _40
REMARK   16  A    between atoms: _39  and  _41
REMARK   17  A    between atoms: _41  and  _42
REMARK   18  A    between atoms: _41  and  _43
REMARK   19  A    between atoms: _44  and  _46
REMARK                            x       y       z     vdW  Elec       q    Type
REMARK                         _______ _______ _______ _____ _____    ______ ____
ROOT
ATOM      1  C   UNL     1      -4.381   8.661  15.203  0.00  0.00    +0.401 C 
ATOM      2  O   UNL     1      -4.369   7.455  14.946  0.00  0.00    -0.226 OA
ATOM      3  N   UNL     1      -4.640   9.612  14.304  0.00  0.00    -0.279 N 
ATOM      4  H   UNL     1      -4.636  10.574  14.613  0.00  0.00    +0.152 HD
ENDROOT
BRANCH   3   5
ATOM      5  C   UNL     1      -4.928   9.340  12.891  0.00  0.00    +0.141 C 
BRANCH   5   6
ATOM      6  C   UNL     1      -4.199  10.308  11.965  0.00  0.00    +0.163 C 
BRANCH   6   7
ATOM      7  O   UNL     1      -5.133  11.238  11.392  0.00  0.00    -0.388 OA
ATOM      8  H   UNL     1      -6.019  10.870  11.435  0.00  0.00    +0.210 HD
ENDBRANCH   6   7
BRANCH   6   9
ATOM      9  C   UNL     1      -3.102  11.044  12.752  0.00  0.00    +0.175 C 
BRANCH   9  10
ATOM     10  C   UNL     1      -2.829  12.446  12.188  0.00  0.00    +0.176 C 
ATOM     11  O   UNL     1      -1.448  12.484  11.734  0.00  0.00    -0.332 OA
ATOM     12  C   UNL     1      -1.034  13.721  11.064  0.00  0.00    +0.277 C 
ATOM     13  C   UNL     1      -1.322  14.946  11.965  0.00  0.00    +0.110 C 
ATOM     14  C   UNL     1      -2.770  14.933  12.499  0.00  0.00    +0.143 C 
ATOM     15  C   UNL     1      -3.094  13.600  13.173  0.00  0.00    +0.133 C 
BRANCH  15  16
ATOM     16  N   UNL     1      -4.502  13.567  13.600  0.00  0.00    -0.308 N 
ATOM     17  H   UNL     1      -5.206  13.822  12.922  0.00  0.00    +0.149 HD
ATOM     18  C   UNL     1      -4.909  13.224  14.825  0.00  0.00    +0.210 C 
ATOM     19  C   UNL     1      -3.810  12.867  15.843  0.00  0.00    +0.109 C 
ATOM     20  O   UNL     1      -6.097  13.192  15.150  0.00  0.00    -0.276 OA
ENDBRANCH  15  16
BRANCH  12  21
ATOM     21  C   UNL     1      -1.770  13.886   9.718  0.00  0.00    +0.414 C 
ATOM     22  O   UNL     1      -1.910  15.003   9.220  0.00  0.00    -0.240 OA
ATOM     23  O   UNL     1      -2.224  12.904   9.130  0.00  0.00    -0.240 OA
ENDBRANCH  12  21
BRANCH  12  24
ATOM     24  O   UNL     1       0.396  13.649  10.832  0.00  0.00    -0.343 OA
ATOM     25  C   UNL     1       1.172  14.697  11.465  0.00  0.00    +0.198 C 
ENDBRANCH  12  24
BRANCH  14  26
ATOM     26  O   UNL     1      -2.946  15.992  13.441  0.00  0.00    -0.390 OA
ATOM     27  H   UNL     1      -2.102  16.423  13.600  0.00  0.00    +0.210 HD
ENDBRANCH  14  26
ENDBRANCH   9  10
BRANCH   9  28
ATOM     28  O   UNL     1      -1.889  10.266  12.759  0.00  0.00    -0.387 OA
ATOM     29  H   UNL     1      -1.861   9.708  11.978  0.00  0.00    +0.210 HD
ENDBRANCH   9  28
ENDBRANCH   6   9
ENDBRANCH   5   6
ENDBRANCH   3   5
BRANCH   1  30
ATOM     30  O   UNL     1      -4.110   9.089  16.540  0.00  0.00    -0.444 OA
BRANCH  30  31
ATOM     31  C   UNL     1      -5.259   9.753  17.072  0.00  0.00    +0.292 C 
BRANCH  31  33
ATOM     32  N   UNL     1      -5.181   9.040  19.447  0.00  0.00    -0.131 NA
ATOM     33  C   UNL     1      -5.079  10.027  18.510  0.00  0.00    +0.121 A 
ATOM     34  C   UNL     1      -4.797  11.216  19.142  0.00  0.00    +0.143 A 
ATOM     35  N   UNL     1      -4.745  10.904  20.480  0.00  0.00    -0.220 N 
ATOM     36  N   UNL     1      -4.975   9.580  20.642  0.00  0.00    -0.060 NA
BRANCH  35  37
ATOM     37  C   UNL     1      -4.492  11.766  21.575  0.00  0.00    +0.071 A 
ATOM     38  C   UNL     1      -3.972  11.260  22.761  0.00  0.00    +0.063 A 
ATOM     39  CA  UNL     1      -3.748  12.153  23.791  0.00  0.00    +0.150 A 
ATOM     40  N   UNL     1      -4.006  13.490  23.733  0.00  0.00    -0.240 NA
ATOM     41  C   UNL     1      -4.528  13.975  22.573  0.00  0.00    +0.074 A 
ATOM     42  C   UNL     1      -4.768  13.139  21.478  0.00  0.00    +0.056 A 
BRANCH  41  43
ATOM     43  C   UNL     1      -4.842  15.425  22.569  0.00  0.00    +0.000 A 
ATOM     44  C   UNL     1      -6.006  15.939  23.170  0.00  0.00    +0.010 A 
ATOM     45  C   UNL     1      -6.273  17.314  23.192  0.00  0.00    +0.001 A 
ATOM     46  C   UNL     1      -5.381  18.209  22.613  0.00  0.00    +0.000 A 
ATOM     47  C   UNL     1      -4.226  17.730  22.004  0.00  0.00    +0.001 A 
ATOM     48  C   UNL     1      -3.962  16.355  21.982  0.00  0.00    +0.010 A 
ENDBRANCH  41  43
BRANCH  39  49
ATOM     49  C   UNL     1      -3.192  11.654  25.082  0.00  0.00    +0.355 C 
ATOM     50  OXT UNL     1      -2.182  12.083  25.610  0.00  0.00    -0.243 OA
BRANCH  49  51
ATOM     51  O   UNL     1      -3.961  10.660  25.582  0.00  0.00    -0.476 OA
ATOM     52  H   UNL     1      -3.462   9.812  25.531  0.00  0.00    +0.295 HD
ENDBRANCH  49  51
ENDBRANCH  39  49
ENDBRANCH  35  37
ENDBRANCH  31  33
ENDBRANCH  30  31
ENDBRANCH   1  30
TORSDOF 17
