REMARK VINA RESULT:    -4.420      4.486      9.598
REMARK INTER + INTRA:         -11.409
REMARK INTER:                  -7.905
REMARK INTRA:                  -3.504
REMARK UNBOUND:                -3.243
REMARK  Name = lig_assembled_78.pdb
REMARK  18 active torsions:
REMARK  status: ('A' for Active; 'I' for Inactive)
REMARK    1  A    between atoms: _2  and  _9
REMARK    2  A    between atoms: _4  and  _21
REMARK    3  A    between atoms: _6  and  _7
REMARK    4  A    between atoms: _6  and  _21
REMARK    5  A    between atoms: _9  and  _41
REMARK    6  A    between atoms: _10  and  _41
REMARK    7  A    between atoms: _17  and  _37
REMARK    8  A    between atoms: _19  and  _25
REMARK    9  A    between atoms: _20  and  _24
REMARK   10  A    between atoms: _24  and  _25
REMARK   11  A    between atoms: _27  and  _28
REMARK   12  A    between atoms: _29  and  _30
REMARK   13  A    between atoms: _31  and  _33
REMARK   14  A    between atoms: _33  and  _34
REMARK   15  A    between atoms: _33  and  _35
REMARK   16  A    between atoms: _35  and  _36
REMARK   17  A    between atoms: _35  and  _37
REMARK   18  A    between atoms: _38  and  _40
REMARK                            x       y       z     vdW  Elec       q    Type
REMARK                         _______ _______ _______ _____ _____    ______ ____
ROOT
ATOM      1  C   UNL     1      -2.654  11.210  25.567  0.00  0.00    +0.163 C 
ENDROOT
BRANCH   1   2
ATOM      2  O   UNL     1      -2.752  10.722  24.218  0.00  0.00    -0.388 OA
ATOM      3  H   UNL     1      -1.896  10.794  23.789  0.00  0.00    +0.210 HD
ENDBRANCH   1   2
BRANCH   1   4
ATOM      4  C   UNL     1      -4.026  11.674  26.085  0.00  0.00    +0.175 C 
BRANCH   4   5
ATOM      5  C   UNL     1      -4.838  12.398  25.001  0.00  0.00    +0.176 C 
ATOM      6  O   UNL     1      -3.916  13.199  24.211  0.00  0.00    -0.332 OA
ATOM      7  C   UNL     1      -4.501  13.885  23.055  0.00  0.00    +0.277 C 
ATOM      8  C   UNL     1      -5.705  14.754  23.494  0.00  0.00    +0.110 C 
ATOM      9  C   UNL     1      -6.698  13.954  24.363  0.00  0.00    +0.143 C 
ATOM     10  C   UNL     1      -5.982  13.280  25.535  0.00  0.00    +0.133 C 
BRANCH  10  11
ATOM     11  N   UNL     1      -6.923  12.451  26.305  0.00  0.00    -0.308 N 
ATOM     12  H   UNL     1      -7.243  11.589  25.887  0.00  0.00    +0.149 HD
ATOM     13  C   UNL     1      -7.381  12.764  27.520  0.00  0.00    +0.210 C 
ATOM     14  C   UNL     1      -6.894  14.097  28.119  0.00  0.00    +0.109 C 
ATOM     15  O   UNL     1      -8.157  12.042  28.148  0.00  0.00    -0.276 OA
ENDBRANCH  10  11
BRANCH   7  16
ATOM     16  C   UNL     1      -4.961  12.867  21.991  0.00  0.00    +0.414 C 
ATOM     17  O   UNL     1      -5.848  13.163  21.192  0.00  0.00    -0.240 OA
ATOM     18  O   UNL     1      -4.444  11.750  21.931  0.00  0.00    -0.240 OA
ENDBRANCH   7  16
BRANCH   7  19
ATOM     19  O   UNL     1      -3.488  14.757  22.491  0.00  0.00    -0.343 OA
ATOM     20  C   UNL     1      -3.969  16.057  22.066  0.00  0.00    +0.198 C 
ENDBRANCH   7  19
BRANCH   9  21
ATOM     21  O   UNL     1      -7.708  14.828  24.869  0.00  0.00    -0.390 OA
ATOM     22  H   UNL     1      -7.539  15.011  25.796  0.00  0.00    +0.210 HD
ENDBRANCH   9  21
ENDBRANCH   4   5
BRANCH   4  23
ATOM     23  O   UNL     1      -3.860  12.527  27.235  0.00  0.00    -0.387 OA
ATOM     24  H   UNL     1      -4.545  13.200  27.236  0.00  0.00    +0.210 HD
ENDBRANCH   4  23
ENDBRANCH   1   4
BRANCH   1  25
ATOM     25  C   UNL     1      -2.108  10.116  26.479  0.00  0.00    +0.141 C 
BRANCH  25  28
ATOM     26  C   UNL     1      -3.023   8.719  28.300  0.00  0.00    +0.401 C 
ATOM     27  O   UNL     1      -2.327   7.739  28.025  0.00  0.00    -0.226 OA
ATOM     28  N   UNL     1      -2.990   9.869  27.626  0.00  0.00    -0.279 N 
ATOM     29  H   UNL     1      -3.607  10.613  27.921  0.00  0.00    +0.152 HD
BRANCH  26  30
ATOM     30  O   UNL     1      -3.932   8.639  29.401  0.00  0.00    -0.444 OA
BRANCH  30  31
ATOM     31  C   UNL     1      -3.298   9.141  30.581  0.00  0.00    +0.292 C 
BRANCH  31  33
ATOM     32  N   UNL     1      -4.423  11.246  29.910  0.00  0.00    -0.131 NA
ATOM     33  C   UNL     1      -3.740  10.522  30.851  0.00  0.00    +0.120 A 
ATOM     34  C   UNL     1      -3.580  11.293  31.981  0.00  0.00    +0.139 A 
ATOM     35  N   UNL     1      -4.240  12.449  31.686  0.00  0.00    -0.230 N 
ATOM     36  N   UNL     1      -4.705  12.435  30.425  0.00  0.00    -0.064 NA
BRANCH  35  37
ATOM     37  C   UNL     1      -4.402  13.627  32.501  0.00  0.00    +0.316 C 
BRANCH  37  38
ATOM     38  S   UNL     1      -3.068  14.786  32.346  0.00  0.00    +0.017 S 
ATOM     39  O   UNL     1      -2.611  15.193  33.659  0.00  0.00    -0.168 OA
ATOM     40  O   UNL     1      -2.135  14.265  31.361  0.00  0.00    -0.168 OA
BRANCH  38  41
ATOM     41  C   UNL     1      -3.827  16.228  31.627  0.00  0.00    +0.090 A 
ATOM     42  C   UNL     1      -3.703  17.461  32.278  0.00  0.00    +0.027 A 
ATOM     43  C   UNL     1      -4.274  18.597  31.706  0.00  0.00    +0.002 A 
ATOM     44  C   UNL     1      -4.946  18.503  30.485  0.00  0.00    +0.000 A 
ATOM     45  C   UNL     1      -5.048  17.275  29.831  0.00  0.00    +0.002 A 
ATOM     46  C   UNL     1      -4.489  16.130  30.400  0.00  0.00    +0.027 A 
ENDBRANCH  38  41
ENDBRANCH  37  38
ENDBRANCH  35  37
ENDBRANCH  31  33
ENDBRANCH  30  31
ENDBRANCH  26  30
ENDBRANCH  25  28
ENDBRANCH   1  25
TORSDOF 16
