REMARK VINA RESULT:    -5.014      4.151      9.816
REMARK INTER + INTRA:         -11.590
REMARK INTER:                  -9.279
REMARK INTRA:                  -2.311
REMARK UNBOUND:                -2.913
REMARK  Name = lig_assembled_93.pdb
REMARK  16 active torsions:
REMARK  status: ('A' for Active; 'I' for Inactive)
REMARK    1  A    between atoms: _2  and  _9
REMARK    2  A    between atoms: _4  and  _18
REMARK    3  A    between atoms: _6  and  _7
REMARK    4  A    between atoms: _6  and  _18
REMARK    5  A    between atoms: _14  and  _34
REMARK    6  A    between atoms: _16  and  _22
REMARK    7  A    between atoms: _17  and  _21
REMARK    8  A    between atoms: _21  and  _22
REMARK    9  A    between atoms: _24  and  _25
REMARK   10  A    between atoms: _26  and  _27
REMARK   11  A    between atoms: _28  and  _30
REMARK   12  A    between atoms: _30  and  _31
REMARK   13  A    between atoms: _30  and  _32
REMARK   14  A    between atoms: _32  and  _33
REMARK   15  A    between atoms: _32  and  _34
REMARK   16  A    between atoms: _35  and  _37
REMARK                            x       y       z     vdW  Elec       q    Type
REMARK                         _______ _______ _______ _____ _____    ______ ____
ROOT
ATOM      1  C   UNL     1      -3.421  12.608  24.261  0.00  0.00    +0.163 C 
ENDROOT
BRANCH   1   2
ATOM      2  O   UNL     1      -2.002  12.532  24.476  0.00  0.00    -0.388 OA
ATOM      3  H   UNL     1      -1.725  13.251  25.049  0.00  0.00    +0.210 HD
ENDBRANCH   1   2
BRANCH   1   4
ATOM      4  C   UNL     1      -3.751  13.801  23.370  0.00  0.00    +0.141 C 
BRANCH   4   7
ATOM      5  C   UNL     1      -5.911  13.822  22.172  0.00  0.00    +0.401 C 
ATOM      6  O   UNL     1      -6.476  14.529  23.009  0.00  0.00    -0.226 OA
ATOM      7  N   UNL     1      -4.640  13.429  22.264  0.00  0.00    -0.279 N 
ATOM      8  H   UNL     1      -4.268  12.842  21.530  0.00  0.00    +0.152 HD
BRANCH   5   9
ATOM      9  O   UNL     1      -6.644  13.383  21.026  0.00  0.00    -0.444 OA
BRANCH   9  10
ATOM     10  C   UNL     1      -6.165  12.100  20.615  0.00  0.00    +0.292 C 
BRANCH  10  12
ATOM     11  N   UNL     1      -7.072  12.198  18.322  0.00  0.00    -0.131 NA
ATOM     12  C   UNL     1      -6.003  12.059  19.149  0.00  0.00    +0.121 A 
ATOM     13  C   UNL     1      -4.869  11.899  18.387  0.00  0.00    +0.143 A 
ATOM     14  N   UNL     1      -5.294  11.964  17.070  0.00  0.00    -0.219 N 
ATOM     15  N   UNL     1      -6.634  12.133  17.074  0.00  0.00    -0.060 NA
BRANCH  14  16
ATOM     16  C   UNL     1      -4.501  11.888  15.882  0.00  0.00    +0.080 A 
ATOM     17  C   UNL     1      -4.192  13.102  15.222  0.00  0.00    +0.029 A 
ATOM     18  C   UNL     1      -3.440  13.130  14.045  0.00  0.00    +0.002 A 
ATOM     19  C   UNL     1      -2.973  11.949  13.494  0.00  0.00    +0.001 A 
ATOM     20  C   UNL     1      -3.255  10.739  14.125  0.00  0.00    +0.016 A 
ATOM     21  C   UNL     1      -4.012  10.692  15.315  0.00  0.00    +0.039 A 
ATOM     22  I   UNL     1      -4.265   8.717  16.031  0.00  0.00    -0.042 I 
ENDBRANCH  14  16
ENDBRANCH  10  12
ENDBRANCH   9  10
ENDBRANCH   5   9
ENDBRANCH   4   7
ENDBRANCH   1   4
BRANCH   1  23
ATOM     23  C   UNL     1      -4.173  12.740  25.597  0.00  0.00    +0.175 C 
BRANCH  23  24
ATOM     24  C   UNL     1      -3.805  11.619  26.580  0.00  0.00    +0.176 C 
ATOM     25  O   UNL     1      -3.780  10.366  25.841  0.00  0.00    -0.332 OA
ATOM     26  C   UNL     1      -3.342   9.191  26.600  0.00  0.00    +0.277 C 
ATOM     27  C   UNL     1      -4.195   9.026  27.882  0.00  0.00    +0.110 C 
ATOM     28  C   UNL     1      -4.278  10.341  28.685  0.00  0.00    +0.143 C 
ATOM     29  C   UNL     1      -4.740  11.498  27.798  0.00  0.00    +0.133 C 
BRANCH  29  30
ATOM     30  N   UNL     1      -4.731  12.761  28.552  0.00  0.00    -0.308 N 
ATOM     31  H   UNL     1      -3.838  13.121  28.858  0.00  0.00    +0.149 HD
ATOM     32  C   UNL     1      -5.826  13.463  28.858  0.00  0.00    +0.210 C 
ATOM     33  C   UNL     1      -7.173  12.874  28.399  0.00  0.00    +0.109 C 
ATOM     34  O   UNL     1      -5.787  14.526  29.478  0.00  0.00    -0.276 OA
ENDBRANCH  29  30
BRANCH  26  35
ATOM     35  C   UNL     1      -1.853   9.313  26.985  0.00  0.00    +0.414 C 
ATOM     36  O   UNL     1      -1.084   9.972  26.286  0.00  0.00    -0.240 OA
ATOM     37  O   UNL     1      -1.420   8.752  27.992  0.00  0.00    -0.240 OA
ENDBRANCH  26  35
BRANCH  28  38
ATOM     38  O   UNL     1      -5.192  10.186  29.771  0.00  0.00    -0.390 OA
ATOM     39  H   UNL     1      -4.703  10.031  30.582  0.00  0.00    +0.210 HD
ENDBRANCH  28  38
BRANCH  26  40
ATOM     40  O   UNL     1      -3.537   8.020  25.766  0.00  0.00    -0.343 OA
ATOM     41  C   UNL     1      -4.161   8.279  24.484  0.00  0.00    +0.198 C 
ENDBRANCH  26  40
ENDBRANCH  23  24
BRANCH  23  42
ATOM     42  O   UNL     1      -5.596  12.752  25.366  0.00  0.00    -0.387 OA
ATOM     43  H   UNL     1      -5.861  11.924  24.959  0.00  0.00    +0.210 HD
ENDBRANCH  23  42
ENDBRANCH   1  23
TORSDOF 14
