REMARK VINA RESULT:    -4.582      2.342      8.760
REMARK INTER + INTRA:         -12.464
REMARK INTER:                  -7.784
REMARK INTRA:                  -4.680
REMARK UNBOUND:                -3.062
REMARK  Name = lig_assembled_74.pdb
REMARK  24 active torsions:
REMARK  status: ('A' for Active; 'I' for Inactive)
REMARK    1  A    between atoms: _2  and  _9
REMARK    2  A    between atoms: _4  and  _22
REMARK    3  A    between atoms: _5  and  _14
REMARK    4  A    between atoms: _6  and  _7
REMARK    5  A    between atoms: _6  and  _22
REMARK    6  A    between atoms: _9  and  _10
REMARK    7  A    between atoms: _10  and  _11
REMARK    8  A    between atoms: _10  and  _13
REMARK    9  A    between atoms: _11  and  _12
REMARK   10  A    between atoms: _12  and  _16
REMARK   11  A    between atoms: _13  and  _14
REMARK   12  A    between atoms: _14  and  _15
REMARK   13  A    between atoms: _18  and  _38
REMARK   14  A    between atoms: _20  and  _26
REMARK   15  A    between atoms: _21  and  _25
REMARK   16  A    between atoms: _25  and  _26
REMARK   17  A    between atoms: _28  and  _29
REMARK   18  A    between atoms: _30  and  _31
REMARK   19  A    between atoms: _32  and  _34
REMARK   20  A    between atoms: _34  and  _35
REMARK   21  A    between atoms: _34  and  _36
REMARK   22  A    between atoms: _36  and  _37
REMARK   23  A    between atoms: _36  and  _38
REMARK   24  A    between atoms: _39  and  _41
REMARK                            x       y       z     vdW  Elec       q    Type
REMARK                         _______ _______ _______ _____ _____    ______ ____
ROOT
ATOM      1  C   UNL     1      -4.237   8.801  24.339  0.00  0.00    +0.163 C 
ENDROOT
BRANCH   1   2
ATOM      2  O   UNL     1      -3.100   9.614  24.673  0.00  0.00    -0.388 OA
ATOM      3  H   UNL     1      -3.188  10.475  24.257  0.00  0.00    +0.210 HD
ENDBRANCH   1   2
BRANCH   1   4
ATOM      4  C   UNL     1      -4.700   9.069  22.897  0.00  0.00    +0.175 C 
BRANCH   4   5
ATOM      5  C   UNL     1      -4.638  10.561  22.538  0.00  0.00    +0.176 C 
ATOM      6  O   UNL     1      -5.199  11.312  23.650  0.00  0.00    -0.332 OA
ATOM      7  C   UNL     1      -5.127  12.771  23.529  0.00  0.00    +0.277 C 
ATOM      8  C   UNL     1      -5.776  13.237  22.203  0.00  0.00    +0.110 C 
ATOM      9  C   UNL     1      -5.234  12.445  20.994  0.00  0.00    +0.143 C 
ATOM     10  C   UNL     1      -5.355  10.938  21.228  0.00  0.00    +0.133 C 
BRANCH  10  11
ATOM     11  N   UNL     1      -4.757  10.194  20.109  0.00  0.00    -0.308 N 
ATOM     12  H   UNL     1      -3.759  10.269  19.972  0.00  0.00    +0.149 HD
ATOM     13  C   UNL     1      -5.447   9.425  19.261  0.00  0.00    +0.210 C 
ATOM     14  C   UNL     1      -6.970   9.353  19.481  0.00  0.00    +0.109 C 
ATOM     15  O   UNL     1      -4.917   8.801  18.341  0.00  0.00    -0.276 OA
ENDBRANCH  10  11
BRANCH   7  16
ATOM     16  C   UNL     1      -3.662  13.253  23.584  0.00  0.00    +0.414 C 
ATOM     17  O   UNL     1      -3.314  14.253  22.956  0.00  0.00    -0.240 OA
ATOM     18  O   UNL     1      -2.829  12.642  24.254  0.00  0.00    -0.240 OA
ENDBRANCH   7  16
BRANCH   9  19
ATOM     19  O   UNL     1      -5.965  12.799  19.819  0.00  0.00    -0.390 OA
ATOM     20  H   UNL     1      -5.401  12.698  19.049  0.00  0.00    +0.210 HD
ENDBRANCH   9  19
BRANCH   7  21
ATOM     21  O   UNL     1      -5.872  13.350  24.631  0.00  0.00    -0.343 OA
ATOM     22  C   UNL     1      -7.249  12.908  24.738  0.00  0.00    +0.198 C 
ENDBRANCH   7  21
ENDBRANCH   4   5
BRANCH   4  23
ATOM     23  O   UNL     1      -6.037   8.566  22.704  0.00  0.00    -0.387 OA
ATOM     24  H   UNL     1      -6.005   7.619  22.552  0.00  0.00    +0.210 HD
ENDBRANCH   4  23
ENDBRANCH   1   4
BRANCH   1  25
ATOM     25  C   UNL     1      -3.887   7.325  24.496  0.00  0.00    +0.141 C 
BRANCH  25  28
ATOM     26  C   UNL     1      -2.821   7.041  26.708  0.00  0.00    +0.401 C 
ATOM     27  O   UNL     1      -1.738   7.510  26.350  0.00  0.00    -0.226 OA
ATOM     28  N   UNL     1      -3.878   6.911  25.905  0.00  0.00    -0.279 N 
ATOM     29  H   UNL     1      -4.721   6.506  26.288  0.00  0.00    +0.152 HD
BRANCH  26  30
ATOM     30  O   UNL     1      -2.974   6.598  28.059  0.00  0.00    -0.444 OA
BRANCH  30  31
ATOM     31  C   UNL     1      -4.202   7.105  28.590  0.00  0.00    +0.292 C 
BRANCH  31  33
ATOM     32  N   UNL     1      -2.685   8.497  29.978  0.00  0.00    -0.131 NA
ATOM     33  C   UNL     1      -3.947   8.223  29.520  0.00  0.00    +0.120 A 
ATOM     34  C   UNL     1      -4.816   9.179  29.998  0.00  0.00    +0.137 A 
ATOM     35  N   UNL     1      -3.992  10.099  30.581  0.00  0.00    -0.251 N 
ATOM     36  N   UNL     1      -2.729   9.639  30.651  0.00  0.00    -0.065 NA
BRANCH  35  37
ATOM     37  C   UNL     1      -4.265  11.508  30.783  0.00  0.00    +0.149 C 
BRANCH  37  38
ATOM     38  C   UNL     1      -4.666  12.298  29.518  0.00  0.00    +0.021 C 
BRANCH  38  39
ATOM     39  C   UNL     1      -3.504  12.493  28.523  0.00  0.00    +0.125 C 
BRANCH  39  40
ATOM     40  C   UNL     1      -3.438  11.462  27.414  0.00  0.00    +0.305 C 
ATOM     41  O   UNL     1      -2.574  10.608  27.305  0.00  0.00    -0.251 OA
BRANCH  40  42
ATOM     42  O   UNL     1      -4.484  11.530  26.570  0.00  0.00    -0.481 OA
ATOM     43  H   UNL     1      -4.506  10.850  25.873  0.00  0.00    +0.295 HD
ENDBRANCH  40  42
ENDBRANCH  39  40
ENDBRANCH  38  39
BRANCH  38  44
ATOM     44  C   UNL     1      -5.334  13.638  29.945  0.00  0.00    +0.009 C 
BRANCH  44  45
ATOM     45  C   UNL     1      -4.740  14.320  31.195  0.00  0.00    -0.017 C 
ATOM     46  C   UNL     1      -3.787  15.462  30.833  0.00  0.00    +0.007 C 
ATOM     47  C   UNL     1      -5.856  14.867  32.092  0.00  0.00    +0.007 C 
ENDBRANCH  44  45
ENDBRANCH  38  44
ENDBRANCH  37  38
ENDBRANCH  35  37
ENDBRANCH  31  33
ENDBRANCH  30  31
ENDBRANCH  26  30
ENDBRANCH  25  28
ENDBRANCH   1  25
TORSDOF 20
