REMARK VINA RESULT:    -5.050      3.800     11.767
REMARK INTER + INTRA:         -14.004
REMARK INTER:                 -10.255
REMARK INTRA:                  -3.749
REMARK UNBOUND:                -3.788
REMARK  Name = lig_assembled_81.pdb
REMARK  22 active torsions:
REMARK  status: ('A' for Active; 'I' for Inactive)
REMARK    1  A    between atoms: _2  and  _12
REMARK    2  A    between atoms: _7  and  _30
REMARK    3  A    between atoms: _8  and  _24
REMARK    4  A    between atoms: _9  and  _10
REMARK    5  A    between atoms: _9  and  _30
REMARK    6  A    between atoms: _14  and  _15
REMARK    7  A    between atoms: _21  and  _22
REMARK    8  A    between atoms: _22  and  _23
REMARK    9  A    between atoms: _23  and  _25
REMARK   10  A    between atoms: _24  and  _25
REMARK   11  A    between atoms: _26  and  _46
REMARK   12  A    between atoms: _28  and  _34
REMARK   13  A    between atoms: _29  and  _33
REMARK   14  A    between atoms: _33  and  _34
REMARK   15  A    between atoms: _36  and  _37
REMARK   16  A    between atoms: _38  and  _39
REMARK   17  A    between atoms: _40  and  _42
REMARK   18  A    between atoms: _42  and  _43
REMARK   19  A    between atoms: _42  and  _44
REMARK   20  A    between atoms: _44  and  _45
REMARK   21  A    between atoms: _44  and  _46
REMARK   22  A    between atoms: _47  and  _49
REMARK                            x       y       z     vdW  Elec       q    Type
REMARK                         _______ _______ _______ _____ _____    ______ ____
ROOT
ATOM      1  C   UNL     1      -4.940  13.804  23.112  0.00  0.00    +0.401 C 
ATOM      2  O   UNL     1      -5.586  14.170  24.097  0.00  0.00    -0.226 OA
ATOM      3  N   UNL     1      -3.715  13.282  23.177  0.00  0.00    -0.279 N 
ATOM      4  H   UNL     1      -3.270  13.003  22.314  0.00  0.00    +0.152 HD
ENDROOT
BRANCH   1   5
ATOM      5  O   UNL     1      -5.522  13.935  21.813  0.00  0.00    -0.444 OA
BRANCH   5   6
ATOM      6  C   UNL     1      -6.391  12.827  21.564  0.00  0.00    +0.289 C 
BRANCH   6   8
ATOM      7  N   UNL     1      -4.587  11.229  21.116  0.00  0.00    -0.130 NA
ATOM      8  C   UNL     1      -5.727  11.840  20.689  0.00  0.00    +0.100 C 
ATOM      9  C   UNL     1      -6.021  11.389  19.417  0.00  0.00    +0.124 C 
ATOM     10  N   UNL     1      -5.091  10.387  19.175  0.00  0.00    -0.187 N 
ATOM     11  N   UNL     1      -4.146  10.461  20.134  0.00  0.00    -0.010 NA
BRANCH  10  12
ATOM     12  C   UNL     1      -4.976   9.546  18.017  0.00  0.00    +0.150 A 
ATOM     13  C   UNL     1      -4.623   9.979  16.714  0.00  0.00    +0.022 A 
ATOM     14  C   UNL     1      -4.667   8.940  15.748  0.00  0.00    +0.081 A 
ATOM     15  N   UNL     1      -5.086   7.685  16.066  0.00  0.00    -0.214 NA
ATOM     16  C   UNL     1      -5.418   7.408  17.316  0.00  0.00    +0.215 A 
ATOM     17  N   UNL     1      -5.923   6.161  17.596  0.00  0.00    -0.327 N 
ATOM     18  H   UNL     1      -5.650   5.489  16.896  0.00  0.00    +0.145 HD
ATOM     19  H   UNL     1      -5.816   5.924  18.571  0.00  0.00    +0.145 HD
ATOM     20  N   UNL     1      -5.290   8.256  18.317  0.00  0.00    -0.198 NA
BRANCH  14  21
ATOM     21  C   UNL     1      -4.313   9.018  14.280  0.00  0.00    +0.001 A 
ATOM     22  C   UNL     1      -3.060   8.685  13.732  0.00  0.00    +0.010 A 
ATOM     23  C   UNL     1      -2.794   8.766  12.355  0.00  0.00    +0.001 A 
ATOM     24  C   UNL     1      -3.789   9.126  11.465  0.00  0.00    +0.000 A 
ATOM     25  C   UNL     1      -5.062   9.411  11.953  0.00  0.00    +0.001 A 
ATOM     26  C   UNL     1      -5.306   9.368  13.334  0.00  0.00    +0.010 A 
ENDBRANCH  14  21
BRANCH  13  27
ATOM     27  C   UNL     1      -4.113  11.353  16.269  0.00  0.00    +0.069 C 
BRANCH  27  28
ATOM     28  C   UNL     1      -5.072  12.443  15.831  0.00  0.00    +0.164 C 
BRANCH  28  29
ATOM     29  O   UNL     1      -5.076  12.763  14.435  0.00  0.00    -0.380 OA
BRANCH  29  30
ATOM     30  C   UNL     1      -3.761  13.271  14.134  0.00  0.00    +0.156 C 
ATOM     31  C   UNL     1      -3.133  12.544  12.968  0.00  0.00    +0.034 C 
ENDBRANCH  29  30
ENDBRANCH  28  29
ENDBRANCH  27  28
ENDBRANCH  13  27
ENDBRANCH  10  12
ENDBRANCH   6   8
ENDBRANCH   5   6
ENDBRANCH   1   5
BRANCH   3  32
ATOM     32  C   UNL     1      -2.977  13.089  24.431  0.00  0.00    +0.141 C 
BRANCH  32  33
ATOM     33  C   UNL     1      -3.328  11.764  25.100  0.00  0.00    +0.163 C 
BRANCH  33  34
ATOM     34  O   UNL     1      -2.200  10.875  25.052  0.00  0.00    -0.388 OA
ATOM     35  H   UNL     1      -2.294  10.278  24.306  0.00  0.00    +0.210 HD
ENDBRANCH  33  34
BRANCH  33  36
ATOM     36  C   UNL     1      -3.765  12.021  26.553  0.00  0.00    +0.175 C 
BRANCH  36  37
ATOM     37  C   UNL     1      -3.431  10.839  27.474  0.00  0.00    +0.176 C 
ATOM     38  O   UNL     1      -4.045   9.647  26.913  0.00  0.00    -0.332 OA
ATOM     39  C   UNL     1      -3.744   8.392  27.607  0.00  0.00    +0.277 C 
ATOM     40  C   UNL     1      -4.100   8.505  29.110  0.00  0.00    +0.110 C 
ATOM     41  C   UNL     1      -3.494   9.776  29.744  0.00  0.00    +0.143 C 
ATOM     42  C   UNL     1      -3.868  11.021  28.940  0.00  0.00    +0.133 C 
BRANCH  42  43
ATOM     43  N   UNL     1      -3.215  12.213  29.503  0.00  0.00    -0.308 N 
ATOM     44  H   UNL     1      -2.206  12.258  29.469  0.00  0.00    +0.149 HD
ATOM     45  C   UNL     1      -3.867  13.239  30.056  0.00  0.00    +0.210 C 
ATOM     46  C   UNL     1      -5.402  13.128  30.116  0.00  0.00    +0.109 C 
ATOM     47  O   UNL     1      -3.294  14.232  30.507  0.00  0.00    -0.276 OA
ENDBRANCH  42  43
BRANCH  39  48
ATOM     48  C   UNL     1      -2.252   8.028  27.456  0.00  0.00    +0.414 C 
ATOM     49  O   UNL     1      -1.664   7.437  28.361  0.00  0.00    -0.240 OA
ATOM     50  O   UNL     1      -1.638   8.324  26.431  0.00  0.00    -0.240 OA
ENDBRANCH  39  48
BRANCH  39  51
ATOM     51  O   UNL     1      -4.563   7.347  27.021  0.00  0.00    -0.343 OA
ATOM     52  C   UNL     1      -5.853   7.786  26.525  0.00  0.00    +0.198 C 
ENDBRANCH  39  51
BRANCH  41  53
ATOM     53  O   UNL     1      -3.970   9.919  31.083  0.00  0.00    -0.390 OA
ATOM     54  H   UNL     1      -4.917  10.078  31.071  0.00  0.00    +0.210 HD
ENDBRANCH  41  53
ENDBRANCH  36  37
BRANCH  36  55
ATOM     55  O   UNL     1      -5.176  12.308  26.603  0.00  0.00    -0.387 OA
ATOM     56  H   UNL     1      -5.449  12.412  27.518  0.00  0.00    +0.210 HD
ENDBRANCH  36  55
ENDBRANCH  33  36
ENDBRANCH  32  33
ENDBRANCH   3  32
TORSDOF 19
