REMARK VINA RESULT:    -5.172      4.983     10.905
REMARK INTER + INTRA:         -12.161
REMARK INTER:                  -8.637
REMARK INTRA:                  -3.525
REMARK UNBOUND:                -2.453
REMARK  Name = lig_assembled_75.pdb
REMARK  19 active torsions:
REMARK  status: ('A' for Active; 'I' for Inactive)
REMARK    1  A    between atoms: _2  and  _9
REMARK    2  A    between atoms: _4  and  _23
REMARK    3  A    between atoms: _6  and  _7
REMARK    4  A    between atoms: _6  and  _23
REMARK    5  A    between atoms: _11  and  _12
REMARK    6  A    between atoms: _13  and  _14
REMARK    7  A    between atoms: _14  and  _17
REMARK    8  A    between atoms: _19  and  _39
REMARK    9  A    between atoms: _21  and  _27
REMARK   10  A    between atoms: _22  and  _26
REMARK   11  A    between atoms: _26  and  _27
REMARK   12  A    between atoms: _29  and  _30
REMARK   13  A    between atoms: _31  and  _32
REMARK   14  A    between atoms: _33  and  _35
REMARK   15  A    between atoms: _35  and  _36
REMARK   16  A    between atoms: _35  and  _37
REMARK   17  A    between atoms: _37  and  _38
REMARK   18  A    between atoms: _37  and  _39
REMARK   19  A    between atoms: _40  and  _42
REMARK                            x       y       z     vdW  Elec       q    Type
REMARK                         _______ _______ _______ _____ _____    ______ ____
ROOT
ATOM      1  C   UNL     1      -2.329  10.201  27.465  0.00  0.00    +0.141 C 
ENDROOT
BRANCH   1   4
ATOM      2  C   UNL     1      -3.475   9.844  29.624  0.00  0.00    +0.401 C 
ATOM      3  O   UNL     1      -3.719   8.655  29.405  0.00  0.00    -0.226 OA
ATOM      4  N   UNL     1      -2.835  10.643  28.770  0.00  0.00    -0.279 N 
ATOM      5  H   UNL     1      -2.691  11.607  29.035  0.00  0.00    +0.152 HD
BRANCH   2   6
ATOM      6  O   UNL     1      -3.899  10.423  30.861  0.00  0.00    -0.444 OA
BRANCH   6   7
ATOM      7  C   UNL     1      -2.754  10.842  31.609  0.00  0.00    +0.292 C 
BRANCH   7   9
ATOM      8  N   UNL     1      -1.770  12.938  32.476  0.00  0.00    -0.131 NA
ATOM      9  C   UNL     1      -2.768  12.305  31.793  0.00  0.00    +0.121 A 
ATOM     10  C   UNL     1      -3.685  13.237  31.367  0.00  0.00    +0.143 A 
ATOM     11  N   UNL     1      -3.203  14.443  31.819  0.00  0.00    -0.220 N 
ATOM     12  N   UNL     1      -2.041  14.236  32.489  0.00  0.00    -0.060 NA
BRANCH  11  13
ATOM     13  C   UNL     1      -3.770  15.737  31.684  0.00  0.00    +0.068 A 
ATOM     14  C   UNL     1      -4.479  16.059  30.514  0.00  0.00    +0.035 A 
ATOM     15  C   UNL     1      -4.995  17.348  30.319  0.00  0.00    -0.023 A 
ATOM     16  C   UNL     1      -4.848  18.293  31.342  0.00  0.00    +0.008 A 
ATOM     17  C   UNL     1      -4.164  17.972  32.516  0.00  0.00    +0.003 A 
ATOM     18  C   UNL     1      -3.617  16.700  32.687  0.00  0.00    +0.028 A 
BRANCH  15  19
ATOM     19  C   UNL     1      -5.703  17.739  29.090  0.00  0.00    +0.015 C 
ATOM     20  C   UNL     1      -6.409  16.884  28.332  0.00  0.00    +0.092 C 
BRANCH  20  21
ATOM     21  C   UNL     1      -7.040  17.361  27.087  0.00  0.00    +0.330 C 
ATOM     22  O   UNL     1      -7.566  16.642  26.256  0.00  0.00    -0.246 OA
BRANCH  21  23
ATOM     23  O   UNL     1      -6.980  18.703  26.974  0.00  0.00    -0.478 OA
ATOM     24  H   UNL     1      -6.176  19.055  26.553  0.00  0.00    +0.295 HD
ENDBRANCH  21  23
ENDBRANCH  20  21
ENDBRANCH  15  19
ENDBRANCH  11  13
ENDBRANCH   7   9
ENDBRANCH   6   7
ENDBRANCH   2   6
ENDBRANCH   1   4
BRANCH   1  25
ATOM     25  C   UNL     1      -3.000  10.942  26.313  0.00  0.00    +0.163 C 
BRANCH  25  26
ATOM     26  O   UNL     1      -2.008  11.413  25.386  0.00  0.00    -0.388 OA
ATOM     27  H   UNL     1      -1.987  10.836  24.619  0.00  0.00    +0.210 HD
ENDBRANCH  25  26
BRANCH  25  28
ATOM     28  C   UNL     1      -4.004  10.007  25.617  0.00  0.00    +0.175 C 
BRANCH  28  29
ATOM     29  C   UNL     1      -5.041  10.784  24.791  0.00  0.00    +0.176 C 
ATOM     30  O   UNL     1      -4.377  11.288  23.600  0.00  0.00    -0.332 OA
ATOM     31  C   UNL     1      -5.241  11.971  22.633  0.00  0.00    +0.277 C 
ATOM     32  C   UNL     1      -6.023  13.117  23.321  0.00  0.00    +0.110 C 
ATOM     33  C   UNL     1      -6.720  12.636  24.611  0.00  0.00    +0.143 C 
ATOM     34  C   UNL     1      -5.729  11.938  25.543  0.00  0.00    +0.133 C 
BRANCH  34  35
ATOM     35  N   UNL     1      -6.422  11.408  26.728  0.00  0.00    -0.308 N 
ATOM     36  H   UNL     1      -7.049  10.627  26.598  0.00  0.00    +0.149 HD
ATOM     37  C   UNL     1      -6.277  11.893  27.965  0.00  0.00    +0.210 C 
ATOM     38  C   UNL     1      -5.334  13.100  28.125  0.00  0.00    +0.109 C 
ATOM     39  O   UNL     1      -6.859  11.419  28.941  0.00  0.00    -0.276 OA
ENDBRANCH  34  35
BRANCH  31  40
ATOM     40  C   UNL     1      -6.236  10.980  21.994  0.00  0.00    +0.414 C 
ATOM     41  O   UNL     1      -5.953   9.786  21.906  0.00  0.00    -0.240 OA
ATOM     42  O   UNL     1      -7.322  11.374  21.566  0.00  0.00    -0.240 OA
ENDBRANCH  31  40
BRANCH  31  43
ATOM     43  O   UNL     1      -4.396  12.547  21.604  0.00  0.00    -0.343 OA
ATOM     44  C   UNL     1      -3.117  11.889  21.422  0.00  0.00    +0.198 C 
ENDBRANCH  31  43
BRANCH  33  45
ATOM     45  O   UNL     1      -7.299  13.752  25.290  0.00  0.00    -0.390 OA
ATOM     46  H   UNL     1      -6.601  14.327  25.614  0.00  0.00    +0.210 HD
ENDBRANCH  33  45
ENDBRANCH  28  29
BRANCH  28  47
ATOM     47  O   UNL     1      -4.667   9.175  26.590  0.00  0.00    -0.387 OA
ATOM     48  H   UNL     1      -5.373   9.673  27.009  0.00  0.00    +0.210 HD
ENDBRANCH  28  47
ENDBRANCH  25  28
ENDBRANCH   1  25
TORSDOF 17
