REMARK VINA RESULT:    -3.346      2.336      7.528
REMARK INTER + INTRA:         -11.364
REMARK INTER:                  -6.863
REMARK INTRA:                  -4.501
REMARK UNBOUND:                -4.498
REMARK  Name = lig_assembled_33.pdb
REMARK  22 active torsions:
REMARK  status: ('A' for Active; 'I' for Inactive)
REMARK    1  A    between atoms: _2  and  _9
REMARK    2  A    between atoms: _4  and  _20
REMARK    3  A    between atoms: _5  and  _13
REMARK    4  A    between atoms: _5  and  _14
REMARK    5  A    between atoms: _6  and  _7
REMARK    6  A    between atoms: _6  and  _20
REMARK    7  A    between atoms: _9  and  _10
REMARK    8  A    between atoms: _10  and  _11
REMARK    9  A    between atoms: _11  and  _12
REMARK   10  A    between atoms: _12  and  _13
REMARK   11  A    between atoms: _16  and  _36
REMARK   12  A    between atoms: _18  and  _24
REMARK   13  A    between atoms: _19  and  _23
REMARK   14  A    between atoms: _23  and  _24
REMARK   15  A    between atoms: _26  and  _27
REMARK   16  A    between atoms: _28  and  _29
REMARK   17  A    between atoms: _30  and  _32
REMARK   18  A    between atoms: _32  and  _33
REMARK   19  A    between atoms: _32  and  _34
REMARK   20  A    between atoms: _34  and  _35
REMARK   21  A    between atoms: _34  and  _36
REMARK   22  A    between atoms: _37  and  _39
REMARK                            x       y       z     vdW  Elec       q    Type
REMARK                         _______ _______ _______ _____ _____    ______ ____
ROOT
ATOM      1  C   UNL     1      -3.033  11.930  25.527  0.00  0.00    +0.163 C 
ENDROOT
BRANCH   1   2
ATOM      2  O   UNL     1      -2.331  12.290  24.326  0.00  0.00    -0.388 OA
ATOM      3  H   UNL     1      -1.385  12.272  24.489  0.00  0.00    +0.210 HD
ENDBRANCH   1   2
BRANCH   1   4
ATOM      4  C   UNL     1      -4.373  11.250  25.199  0.00  0.00    +0.175 C 
BRANCH   4   5
ATOM      5  C   UNL     1      -4.597  11.113  23.686  0.00  0.00    +0.176 C 
ATOM      6  O   UNL     1      -5.250  12.325  23.218  0.00  0.00    -0.332 OA
ATOM      7  C   UNL     1      -5.449  12.419  21.769  0.00  0.00    +0.277 C 
ATOM      8  C   UNL     1      -6.213  11.177  21.246  0.00  0.00    +0.110 C 
ATOM      9  C   UNL     1      -5.574   9.864  21.744  0.00  0.00    +0.143 C 
ATOM     10  C   UNL     1      -5.411   9.875  23.264  0.00  0.00    +0.133 C 
BRANCH  10  11
ATOM     11  N   UNL     1      -4.722   8.656  23.718  0.00  0.00    -0.308 N 
ATOM     12  H   UNL     1      -3.780   8.496  23.388  0.00  0.00    +0.149 HD
ATOM     13  C   UNL     1      -5.260   7.748  24.536  0.00  0.00    +0.210 C 
ATOM     14  C   UNL     1      -6.705   8.008  25.000  0.00  0.00    +0.109 C 
ATOM     15  O   UNL     1      -4.654   6.744  24.911  0.00  0.00    -0.276 OA
ENDBRANCH  10  11
BRANCH   7  16
ATOM     16  C   UNL     1      -4.096  12.537  21.037  0.00  0.00    +0.414 C 
ATOM     17  O   UNL     1      -4.003  12.222  19.851  0.00  0.00    -0.240 OA
ATOM     18  O   UNL     1      -3.098  12.946  21.632  0.00  0.00    -0.240 OA
ENDBRANCH   7  16
BRANCH   9  19
ATOM     19  O   UNL     1      -6.393   8.756  21.367  0.00  0.00    -0.390 OA
ATOM     20  H   UNL     1      -5.886   7.945  21.434  0.00  0.00    +0.210 HD
ENDBRANCH   9  19
BRANCH   7  21
ATOM     21  O   UNL     1      -6.253  13.596  21.501  0.00  0.00    -0.343 OA
ATOM     22  C   UNL     1      -6.034  14.706  22.409  0.00  0.00    +0.198 C 
ENDBRANCH   7  21
ENDBRANCH   4   5
BRANCH   4  23
ATOM     23  O   UNL     1      -5.461  11.984  25.797  0.00  0.00    -0.387 OA
ATOM     24  H   UNL     1      -6.131  11.368  26.105  0.00  0.00    +0.210 HD
ENDBRANCH   4  23
ENDBRANCH   1   4
BRANCH   1  25
ATOM     25  C   UNL     1      -2.177  10.989  26.369  0.00  0.00    +0.141 C 
BRANCH  25  28
ATOM     26  C   UNL     1      -2.811   8.731  27.146  0.00  0.00    +0.401 C 
ATOM     27  O   UNL     1      -1.941   8.157  26.487  0.00  0.00    -0.226 OA
ATOM     28  N   UNL     1      -2.997  10.051  27.146  0.00  0.00    -0.279 N 
ATOM     29  H   UNL     1      -3.744  10.428  27.712  0.00  0.00    +0.152 HD
BRANCH  26  30
ATOM     30  O   UNL     1      -3.689   7.953  27.964  0.00  0.00    -0.444 OA
BRANCH  30  31
ATOM     31  C   UNL     1      -3.093   7.753  29.249  0.00  0.00    +0.292 C 
BRANCH  31  33
ATOM     32  N   UNL     1      -2.975   9.266  31.202  0.00  0.00    -0.131 NA
ATOM     33  C   UNL     1      -3.728   8.627  30.252  0.00  0.00    +0.120 A 
ATOM     34  C   UNL     1      -5.055   8.950  30.438  0.00  0.00    +0.137 A 
ATOM     35  N   UNL     1      -5.039   9.793  31.508  0.00  0.00    -0.251 N 
ATOM     36  N   UNL     1      -3.792   9.967  31.975  0.00  0.00    -0.065 NA
BRANCH  35  37
ATOM     37  C   UNL     1      -6.159  10.454  32.145  0.00  0.00    +0.145 C 
BRANCH  37  38
ATOM     38  C   UNL     1      -5.745  11.761  32.820  0.00  0.00    +0.023 C 
BRANCH  38  39
ATOM     39  C   UNL     1      -5.919  12.977  31.906  0.00  0.00    +0.002 C 
BRANCH  39  40
ATOM     40  C   UNL     1      -4.557  13.618  31.630  0.00  0.00    +0.011 C 
BRANCH  40  41
ATOM     41  C   UNL     1      -4.297  13.840  30.142  0.00  0.00    +0.120 C 
BRANCH  41  42
ATOM     42  C   UNL     1      -4.093  12.527  29.419  0.00  0.00    +0.305 C 
ATOM     43  O   UNL     1      -4.854  12.048  28.595  0.00  0.00    -0.251 OA
BRANCH  42  44
ATOM     44  O   UNL     1      -2.943  11.913  29.782  0.00  0.00    -0.481 OA
ATOM     45  H   UNL     1      -3.066  10.999  30.097  0.00  0.00    +0.295 HD
ENDBRANCH  42  44
ENDBRANCH  41  42
ENDBRANCH  40  41
ENDBRANCH  39  40
ENDBRANCH  38  39
ENDBRANCH  37  38
ENDBRANCH  35  37
ENDBRANCH  31  33
ENDBRANCH  30  31
ENDBRANCH  26  30
ENDBRANCH  25  28
ENDBRANCH   1  25
TORSDOF 20
