REMARK VINA RESULT:    -4.887      2.767     10.208
REMARK INTER + INTRA:         -11.816
REMARK INTER:                  -9.281
REMARK INTRA:                  -2.534
REMARK UNBOUND:                -3.358
REMARK  Name = lig_assembled_42.pdb
REMARK  16 active torsions:
REMARK  status: ('A' for Active; 'I' for Inactive)
REMARK    1  A    between atoms: _2  and  _9
REMARK    2  A    between atoms: _4  and  _21
REMARK    3  A    between atoms: _6  and  _7
REMARK    4  A    between atoms: _6  and  _21
REMARK    5  A    between atoms: _17  and  _37
REMARK    6  A    between atoms: _19  and  _25
REMARK    7  A    between atoms: _20  and  _24
REMARK    8  A    between atoms: _24  and  _25
REMARK    9  A    between atoms: _27  and  _28
REMARK   10  A    between atoms: _29  and  _30
REMARK   11  A    between atoms: _31  and  _33
REMARK   12  A    between atoms: _33  and  _34
REMARK   13  A    between atoms: _33  and  _35
REMARK   14  A    between atoms: _35  and  _36
REMARK   15  A    between atoms: _35  and  _37
REMARK   16  A    between atoms: _38  and  _40
REMARK                            x       y       z     vdW  Elec       q    Type
REMARK                         _______ _______ _______ _____ _____    ______ ____
ROOT
ATOM      1  C   UNL     1      -5.245   7.303  23.941  0.00  0.00    +0.163 C 
ENDROOT
BRANCH   1   2
ATOM      2  O   UNL     1      -4.072   6.797  24.599  0.00  0.00    -0.388 OA
ATOM      3  H   UNL     1      -3.288   7.145  24.168  0.00  0.00    +0.210 HD
ENDBRANCH   1   2
BRANCH   1   4
ATOM      4  C   UNL     1      -5.673   6.348  22.831  0.00  0.00    +0.141 C 
BRANCH   4   7
ATOM      5  C   UNL     1      -5.932   6.675  20.396  0.00  0.00    +0.401 C 
ATOM      6  O   UNL     1      -5.274   5.676  20.096  0.00  0.00    -0.226 OA
ATOM      7  N   UNL     1      -6.163   7.068  21.649  0.00  0.00    -0.279 N 
ATOM      8  H   UNL     1      -6.707   7.907  21.794  0.00  0.00    +0.152 HD
BRANCH   5   9
ATOM      9  O   UNL     1      -6.487   7.480  19.352  0.00  0.00    -0.444 OA
BRANCH   9  10
ATOM     10  C   UNL     1      -5.969   8.809  19.446  0.00  0.00    +0.292 C 
BRANCH  10  12
ATOM     11  N   UNL     1      -4.614   8.258  17.442  0.00  0.00    -0.131 NA
ATOM     12  C   UNL     1      -5.269   9.183  18.203  0.00  0.00    +0.121 A 
ATOM     13  C   UNL     1      -5.143  10.417  17.613  0.00  0.00    +0.143 A 
ATOM     14  N   UNL     1      -4.396  10.200  16.480  0.00  0.00    -0.220 N 
ATOM     15  N   UNL     1      -4.086   8.883  16.395  0.00  0.00    -0.060 NA
BRANCH  14  16
ATOM     16  C   UNL     1      -3.975  11.146  15.511  0.00  0.00    +0.071 A 
ATOM     17  C   UNL     1      -3.132  10.748  14.462  0.00  0.00    +0.077 A 
ATOM     18  C   UNL     1      -2.751  11.704  13.546  0.00  0.00    +0.168 A 
ATOM     19  O   UNL     1      -1.945  11.483  12.474  0.00  0.00    -0.453 OA
ATOM     20  C   UNL     1      -1.905  12.802  11.891  0.00  0.00    +0.466 C 
ATOM     21  O   UNL     1      -2.676  13.777  12.627  0.00  0.00    -0.453 OA
ATOM     22  C   UNL     1      -3.169  13.009  13.635  0.00  0.00    +0.166 A 
ATOM     23  C   UNL     1      -3.996  13.436  14.652  0.00  0.00    +0.051 A 
ATOM     24  C   UNL     1      -4.405  12.491  15.603  0.00  0.00    +0.031 A 
ENDBRANCH  14  16
ENDBRANCH  10  12
ENDBRANCH   9  10
ENDBRANCH   5   9
ENDBRANCH   4   7
ENDBRANCH   1   4
BRANCH   1  25
ATOM     25  C   UNL     1      -4.984   8.698  23.347  0.00  0.00    +0.175 C 
BRANCH  25  26
ATOM     26  C   UNL     1      -3.943   9.485  24.155  0.00  0.00    +0.176 C 
ATOM     27  O   UNL     1      -4.311   9.403  25.559  0.00  0.00    -0.332 OA
ATOM     28  C   UNL     1      -3.366  10.012  26.500  0.00  0.00    +0.277 C 
ATOM     29  C   UNL     1      -3.096  11.488  26.115  0.00  0.00    +0.110 C 
ATOM     30  C   UNL     1      -2.731  11.629  24.622  0.00  0.00    +0.143 C 
ATOM     31  C   UNL     1      -3.779  10.957  23.735  0.00  0.00    +0.133 C 
BRANCH  31  32
ATOM     32  N   UNL     1      -3.376  11.023  22.321  0.00  0.00    -0.308 N 
ATOM     33  H   UNL     1      -2.575  10.479  22.033  0.00  0.00    +0.149 HD
ATOM     34  C   UNL     1      -4.000  11.755  21.394  0.00  0.00    +0.210 C 
ATOM     35  C   UNL     1      -5.201  12.594  21.870  0.00  0.00    +0.109 C 
ATOM     36  O   UNL     1      -3.649  11.779  20.214  0.00  0.00    -0.276 OA
ENDBRANCH  31  32
BRANCH  28  37
ATOM     37  C   UNL     1      -2.035   9.233  26.520  0.00  0.00    +0.414 C 
ATOM     38  O   UNL     1      -2.037   8.002  26.510  0.00  0.00    -0.240 OA
ATOM     39  O   UNL     1      -0.960   9.833  26.546  0.00  0.00    -0.240 OA
ENDBRANCH  28  37
BRANCH  30  40
ATOM     40  O   UNL     1      -2.639  13.012  24.278  0.00  0.00    -0.390 OA
ATOM     41  H   UNL     1      -3.416  13.270  23.776  0.00  0.00    +0.210 HD
ENDBRANCH  30  40
BRANCH  28  42
ATOM     42  O   UNL     1      -3.967   9.987  27.820  0.00  0.00    -0.343 OA
ATOM     43  C   UNL     1      -4.655  11.204  28.203  0.00  0.00    +0.198 C 
ENDBRANCH  28  42
ENDBRANCH  25  26
BRANCH  25  44
ATOM     44  O   UNL     1      -6.217   9.442  23.267  0.00  0.00    -0.387 OA
ATOM     45  H   UNL     1      -6.021  10.378  23.181  0.00  0.00    +0.210 HD
ENDBRANCH  25  44
ENDBRANCH   1  25
TORSDOF 14
