REMARK VINA RESULT:    -4.205      2.721      5.310
REMARK INTER + INTRA:         -11.566
REMARK INTER:                  -8.015
REMARK INTRA:                  -3.550
REMARK UNBOUND:                -3.181
REMARK  Name = lig_assembled_76.pdb
REMARK  21 active torsions:
REMARK  status: ('A' for Active; 'I' for Inactive)
REMARK    1  A    between atoms: _2  and  _9
REMARK    2  A    between atoms: _4  and  _23
REMARK    3  A    between atoms: _6  and  _7
REMARK    4  A    between atoms: _6  and  _23
REMARK    5  A    between atoms: _9  and  _10
REMARK    6  A    between atoms: _10  and  _11
REMARK    7  A    between atoms: _10  and  _18
REMARK    8  A    between atoms: _11  and  _12
REMARK    9  A    between atoms: _12  and  _13
REMARK   10  A    between atoms: _19  and  _39
REMARK   11  A    between atoms: _21  and  _27
REMARK   12  A    between atoms: _22  and  _26
REMARK   13  A    between atoms: _26  and  _27
REMARK   14  A    between atoms: _29  and  _30
REMARK   15  A    between atoms: _31  and  _32
REMARK   16  A    between atoms: _33  and  _35
REMARK   17  A    between atoms: _35  and  _36
REMARK   18  A    between atoms: _35  and  _37
REMARK   19  A    between atoms: _37  and  _38
REMARK   20  A    between atoms: _37  and  _39
REMARK   21  A    between atoms: _40  and  _42
REMARK                            x       y       z     vdW  Elec       q    Type
REMARK                         _______ _______ _______ _____ _____    ______ ____
ROOT
ATOM      1  C   UNL     1      -2.297  10.189  26.614  0.00  0.00    +0.141 C 
ENDROOT
BRANCH   1   4
ATOM      2  C   UNL     1      -2.981   8.684  28.450  0.00  0.00    +0.401 C 
ATOM      3  O   UNL     1      -2.262   7.753  28.081  0.00  0.00    -0.226 OA
ATOM      4  N   UNL     1      -3.064   9.857  27.821  0.00  0.00    -0.279 N 
ATOM      5  H   UNL     1      -3.690  10.556  28.195  0.00  0.00    +0.152 HD
BRANCH   2   6
ATOM      6  O   UNL     1      -3.787   8.518  29.620  0.00  0.00    -0.444 OA
BRANCH   6   7
ATOM      7  C   UNL     1      -3.000   8.786  30.784  0.00  0.00    +0.292 C 
BRANCH   7   9
ATOM      8  N   UNL     1      -4.082  11.011  30.628  0.00  0.00    -0.131 NA
ATOM      9  C   UNL     1      -3.338  10.106  31.341  0.00  0.00    +0.120 A 
ATOM     10  C   UNL     1      -3.003  10.656  32.559  0.00  0.00    +0.137 A 
ATOM     11  N   UNL     1      -3.575  11.890  32.526  0.00  0.00    -0.249 N 
ATOM     12  N   UNL     1      -4.214  12.107  31.365  0.00  0.00    -0.065 NA
BRANCH  11  13
ATOM     13  C   UNL     1      -3.443  12.951  33.498  0.00  0.00    +0.176 C 
BRANCH  13  14
ATOM     14  C   UNL     1      -2.425  14.019  33.082  0.00  0.00    +0.136 C 
BRANCH  14  15
ATOM     15  O   UNL     1      -2.007  13.802  31.726  0.00  0.00    -0.390 OA
ATOM     16  H   UNL     1      -2.308  12.923  31.437  0.00  0.00    +0.210 HD
ENDBRANCH  14  15
BRANCH  14  17
ATOM     17  C   UNL     1      -3.000  15.442  33.163  0.00  0.00    +0.038 C 
BRANCH  17  18
ATOM     18  C   UNL     1      -4.526  15.488  33.085  0.00  0.00    +0.038 C 
BRANCH  18  19
ATOM     19  C   UNL     1      -5.010  16.073  31.783  0.00  0.00    -0.047 A 
ATOM     20  C   UNL     1      -5.943  15.380  31.000  0.00  0.00    +0.003 A 
ATOM     21  C   UNL     1      -6.407  15.927  29.803  0.00  0.00    +0.000 A 
ATOM     22  C   UNL     1      -5.939  17.168  29.376  0.00  0.00    +0.000 A 
ATOM     23  C   UNL     1      -5.002  17.859  30.143  0.00  0.00    +0.000 A 
ATOM     24  C   UNL     1      -4.535  17.313  31.340  0.00  0.00    +0.003 A 
ENDBRANCH  18  19
ENDBRANCH  17  18
ENDBRANCH  14  17
ENDBRANCH  13  14
ENDBRANCH  11  13
ENDBRANCH   7   9
ENDBRANCH   6   7
ENDBRANCH   2   6
ENDBRANCH   1   4
BRANCH   1  25
ATOM     25  C   UNL     1      -2.984  11.267  25.782  0.00  0.00    +0.163 C 
BRANCH  25  26
ATOM     26  O   UNL     1      -2.000  12.111  25.161  0.00  0.00    -0.388 OA
ATOM     27  H   UNL     1      -1.229  11.587  24.929  0.00  0.00    +0.210 HD
ENDBRANCH  25  26
BRANCH  25  28
ATOM     28  C   UNL     1      -3.886  10.605  24.727  0.00  0.00    +0.175 C 
BRANCH  28  29
ATOM     29  C   UNL     1      -4.826  11.616  24.053  0.00  0.00    +0.176 C 
ATOM     30  O   UNL     1      -4.037  12.410  23.125  0.00  0.00    -0.332 OA
ATOM     31  C   UNL     1      -4.791  13.365  22.308  0.00  0.00    +0.277 C 
ATOM     32  C   UNL     1      -5.637  14.299  23.208  0.00  0.00    +0.110 C 
ATOM     33  C   UNL     1      -6.469  13.501  24.234  0.00  0.00    +0.143 C 
ATOM     34  C   UNL     1      -5.586  12.537  25.026  0.00  0.00    +0.133 C 
BRANCH  34  35
ATOM     35  N   UNL     1      -6.403  11.721  25.938  0.00  0.00    -0.308 N 
ATOM     36  H   UNL     1      -7.018  11.031  25.530  0.00  0.00    +0.149 HD
ATOM     37  C   UNL     1      -6.384  11.832  27.269  0.00  0.00    +0.210 C 
ATOM     38  C   UNL     1      -5.455  12.910  27.858  0.00  0.00    +0.109 C 
ATOM     39  O   UNL     1      -7.069  11.124  28.009  0.00  0.00    -0.276 OA
ENDBRANCH  34  35
BRANCH  31  40
ATOM     40  C   UNL     1      -5.717  12.627  21.318  0.00  0.00    +0.414 C 
ATOM     41  O   UNL     1      -6.707  13.192  20.856  0.00  0.00    -0.240 OA
ATOM     42  O   UNL     1      -5.473  11.467  20.983  0.00  0.00    -0.240 OA
ENDBRANCH  31  40
BRANCH  33  43
ATOM     43  O   UNL     1      -7.112  14.401  25.137  0.00  0.00    -0.390 OA
ATOM     44  H   UNL     1      -7.966  14.043  25.393  0.00  0.00    +0.210 HD
ENDBRANCH  33  43
BRANCH  31  45
ATOM     45  O   UNL     1      -3.840  14.177  21.573  0.00  0.00    -0.343 OA
ATOM     46  C   UNL     1      -3.102  15.133  22.376  0.00  0.00    +0.198 C 
ENDBRANCH  31  45
ENDBRANCH  28  29
BRANCH  28  47
ATOM     47  O   UNL     1      -4.650   9.539  25.325  0.00  0.00    -0.387 OA
ATOM     48  H   UNL     1      -5.574   9.631  25.081  0.00  0.00    +0.210 HD
ENDBRANCH  28  47
ENDBRANCH  25  28
ENDBRANCH   1  25
TORSDOF 19
