REMARK VINA RESULT:    -5.335      2.685      5.595
REMARK INTER + INTRA:         -11.636
REMARK INTER:                  -8.179
REMARK INTRA:                  -3.457
REMARK UNBOUND:                -1.779
REMARK  Name = lig_assembled_14.pdb
REMARK  18 active torsions:
REMARK  status: ('A' for Active; 'I' for Inactive)
REMARK    1  A    between atoms: _2  and  _10
REMARK    2  A    between atoms: _3  and  _11
REMARK    3  A    between atoms: _5  and  _19
REMARK    4  A    between atoms: _7  and  _8
REMARK    5  A    between atoms: _7  and  _19
REMARK    6  A    between atoms: _10  and  _11
REMARK    7  A    between atoms: _15  and  _35
REMARK    8  A    between atoms: _17  and  _23
REMARK    9  A    between atoms: _18  and  _22
REMARK   10  A    between atoms: _22  and  _23
REMARK   11  A    between atoms: _25  and  _26
REMARK   12  A    between atoms: _27  and  _28
REMARK   13  A    between atoms: _29  and  _31
REMARK   14  A    between atoms: _31  and  _32
REMARK   15  A    between atoms: _31  and  _33
REMARK   16  A    between atoms: _33  and  _34
REMARK   17  A    between atoms: _33  and  _35
REMARK   18  A    between atoms: _36  and  _38
REMARK                            x       y       z     vdW  Elec       q    Type
REMARK                         _______ _______ _______ _____ _____    ______ ____
ROOT
ATOM      1  C   UNL     1      -3.077  11.653  22.696  0.00  0.00    +0.163 C 
ENDROOT
BRANCH   1   2
ATOM      2  O   UNL     1      -2.598  12.280  23.897  0.00  0.00    -0.388 OA
ATOM      3  H   UNL     1      -2.998  13.148  23.986  0.00  0.00    +0.210 HD
ENDBRANCH   1   2
BRANCH   1   4
ATOM      4  C   UNL     1      -3.846  10.360  23.019  0.00  0.00    +0.175 C 
BRANCH   4   5
ATOM      5  C   UNL     1      -3.964  10.121  24.532  0.00  0.00    +0.176 C 
ATOM      6  O   UNL     1      -2.890   9.224  24.928  0.00  0.00    -0.332 OA
ATOM      7  C   UNL     1      -2.779   8.964  26.366  0.00  0.00    +0.277 C 
ATOM      8  C   UNL     1      -4.126   8.447  26.928  0.00  0.00    +0.110 C 
ATOM      9  C   UNL     1      -5.304   9.351  26.506  0.00  0.00    +0.143 C 
ATOM     10  C   UNL     1      -5.321   9.557  24.991  0.00  0.00    +0.133 C 
BRANCH  10  11
ATOM     11  N   UNL     1      -6.394  10.490  24.610  0.00  0.00    -0.308 N 
ATOM     12  H   UNL     1      -6.373  11.420  25.005  0.00  0.00    +0.149 HD
ATOM     13  C   UNL     1      -7.394  10.188  23.778  0.00  0.00    +0.210 C 
ATOM     14  C   UNL     1      -7.413   8.754  23.215  0.00  0.00    +0.109 C 
ATOM     15  O   UNL     1      -8.271  10.994  23.466  0.00  0.00    -0.276 OA
ENDBRANCH  10  11
BRANCH   7  16
ATOM     16  C   UNL     1      -2.362  10.242  27.123  0.00  0.00    +0.414 C 
ATOM     17  O   UNL     1      -1.843  11.179  26.518  0.00  0.00    -0.240 OA
ATOM     18  O   UNL     1      -2.543  10.336  28.337  0.00  0.00    -0.240 OA
ENDBRANCH   7  16
BRANCH   9  19
ATOM     19  O   UNL     1      -6.537   8.758  26.914  0.00  0.00    -0.390 OA
ATOM     20  H   UNL     1      -6.929   9.284  27.616  0.00  0.00    +0.210 HD
ENDBRANCH   9  19
BRANCH   7  21
ATOM     21  O   UNL     1      -1.777   7.932  26.560  0.00  0.00    -0.343 OA
ATOM     22  C   UNL     1      -2.224   6.779  27.316  0.00  0.00    +0.198 C 
ENDBRANCH   7  21
ENDBRANCH   4   5
BRANCH   4  23
ATOM     23  O   UNL     1      -3.209   9.232  22.386  0.00  0.00    -0.387 OA
ATOM     24  H   UNL     1      -2.353   9.078  22.793  0.00  0.00    +0.210 HD
ENDBRANCH   4  23
ENDBRANCH   1   4
BRANCH   1  25
ATOM     25  C   UNL     1      -3.988  12.610  21.935  0.00  0.00    +0.141 C 
BRANCH  25  28
ATOM     26  C   UNL     1      -4.847  14.689  22.958  0.00  0.00    +0.401 C 
ATOM     27  O   UNL     1      -4.079  15.425  22.334  0.00  0.00    -0.226 OA
ATOM     28  N   UNL     1      -4.869  13.361  22.838  0.00  0.00    -0.279 N 
ATOM     29  H   UNL     1      -5.530  12.842  23.400  0.00  0.00    +0.152 HD
BRANCH  26  30
ATOM     30  O   UNL     1      -5.776  15.273  23.875  0.00  0.00    -0.444 OA
BRANCH  30  31
ATOM     31  C   UNL     1      -6.589  14.246  24.450  0.00  0.00    +0.292 C 
BRANCH  31  33
ATOM     32  N   UNL     1      -5.103  12.965  25.958  0.00  0.00    -0.131 NA
ATOM     33  C   UNL     1      -6.098  13.893  25.795  0.00  0.00    +0.120 A 
ATOM     34  C   UNL     1      -6.493  14.352  27.031  0.00  0.00    +0.137 A 
ATOM     35  N   UNL     1      -5.711  13.657  27.902  0.00  0.00    -0.250 N 
ATOM     36  N   UNL     1      -4.871  12.830  27.255  0.00  0.00    -0.065 NA
BRANCH  35  37
ATOM     37  C   UNL     1      -5.742  13.680  29.349  0.00  0.00    +0.160 C 
BRANCH  37  38
ATOM     38  C   UNL     1      -5.139  12.407  29.954  0.00  0.00    +0.107 C 
BRANCH  38  39
ATOM     39  N   UNL     1      -3.784  12.613  30.495  0.00  0.00    -0.301 NA
ATOM     40  C   UNL     1      -3.569  13.969  31.008  0.00  0.00    +0.084 C 
ATOM     41  C   UNL     1      -2.322  13.807  31.853  0.00  0.00    +0.017 C 
ATOM     42  C   UNL     1      -2.499  12.446  32.501  0.00  0.00    +0.017 C 
ATOM     43  C   UNL     1      -3.504  11.710  31.621  0.00  0.00    +0.084 C 
ENDBRANCH  38  39
ENDBRANCH  37  38
ENDBRANCH  35  37
ENDBRANCH  31  33
ENDBRANCH  30  31
ENDBRANCH  26  30
ENDBRANCH  25  28
ENDBRANCH   1  25
TORSDOF 16
