REMARK VINA RESULT:    -4.522      1.504      1.768
REMARK INTER + INTRA:         -11.879
REMARK INTER:                  -9.599
REMARK INTRA:                  -2.280
REMARK UNBOUND:                -3.657
REMARK  Name = lig_assembled_88.pdb
REMARK  18 active torsions:
REMARK  status: ('A' for Active; 'I' for Inactive)
REMARK    1  A    between atoms: _2  and  _9
REMARK    2  A    between atoms: _4  and  _20
REMARK    3  A    between atoms: _5  and  _15
REMARK    4  A    between atoms: _6  and  _7
REMARK    5  A    between atoms: _6  and  _20
REMARK    6  A    between atoms: _9  and  _10
REMARK    7  A    between atoms: _16  and  _36
REMARK    8  A    between atoms: _18  and  _24
REMARK    9  A    between atoms: _19  and  _23
REMARK   10  A    between atoms: _23  and  _24
REMARK   11  A    between atoms: _26  and  _27
REMARK   12  A    between atoms: _28  and  _29
REMARK   13  A    between atoms: _30  and  _32
REMARK   14  A    between atoms: _32  and  _33
REMARK   15  A    between atoms: _32  and  _34
REMARK   16  A    between atoms: _34  and  _35
REMARK   17  A    between atoms: _34  and  _36
REMARK   18  A    between atoms: _37  and  _39
REMARK                            x       y       z     vdW  Elec       q    Type
REMARK                         _______ _______ _______ _____ _____    ______ ____
ROOT
ATOM      1  C   UNL     1      -4.693  12.074  26.548  0.00  0.00    +0.163 C 
ENDROOT
BRANCH   1   2
ATOM      2  O   UNL     1      -5.235  10.814  26.120  0.00  0.00    -0.388 OA
ATOM      3  H   UNL     1      -5.146  10.170  26.827  0.00  0.00    +0.210 HD
ENDBRANCH   1   2
BRANCH   1   4
ATOM      4  C   UNL     1      -4.765  12.213  28.078  0.00  0.00    +0.175 C 
BRANCH   4   5
ATOM      5  C   UNL     1      -3.882  11.180  28.794  0.00  0.00    +0.176 C 
ATOM      6  O   UNL     1      -4.513   9.877  28.652  0.00  0.00    -0.332 OA
ATOM      7  C   UNL     1      -3.754   8.743  29.187  0.00  0.00    +0.277 C 
ATOM      8  C   UNL     1      -3.388   8.988  30.671  0.00  0.00    +0.110 C 
ATOM      9  C   UNL     1      -2.743  10.375  30.877  0.00  0.00    +0.143 C 
ATOM     10  C   UNL     1      -3.615  11.480  30.281  0.00  0.00    +0.133 C 
BRANCH  10  11
ATOM     11  N   UNL     1      -2.949  12.786  30.406  0.00  0.00    -0.308 N 
ATOM     12  H   UNL     1      -2.051  12.903  29.958  0.00  0.00    +0.149 HD
ATOM     13  C   UNL     1      -3.454  13.828  31.073  0.00  0.00    +0.210 C 
ATOM     14  C   UNL     1      -4.812  13.610  31.767  0.00  0.00    +0.109 C 
ATOM     15  O   UNL     1      -2.880  14.915  31.149  0.00  0.00    -0.276 OA
ENDBRANCH  10  11
BRANCH   7  16
ATOM     16  C   UNL     1      -2.465   8.514  28.370  0.00  0.00    +0.414 C 
ATOM     17  O   UNL     1      -2.379   8.935  27.217  0.00  0.00    -0.240 OA
ATOM     18  O   UNL     1      -1.513   7.909  28.863  0.00  0.00    -0.240 OA
ENDBRANCH   7  16
BRANCH   7  19
ATOM     19  O   UNL     1      -4.596   7.564  29.112  0.00  0.00    -0.343 OA
ATOM     20  C   UNL     1      -5.726   7.674  28.210  0.00  0.00    +0.198 C 
ENDBRANCH   7  19
BRANCH   9  21
ATOM     21  O   UNL     1      -2.562  10.620  32.273  0.00  0.00    -0.390 OA
ATOM     22  H   UNL     1      -3.387  10.457  32.736  0.00  0.00    +0.210 HD
ENDBRANCH   9  21
ENDBRANCH   4   5
BRANCH   4  23
ATOM     23  O   UNL     1      -6.131  12.093  28.524  0.00  0.00    -0.387 OA
ATOM     24  H   UNL     1      -6.168  12.206  29.477  0.00  0.00    +0.210 HD
ENDBRANCH   4  23
ENDBRANCH   1   4
BRANCH   1  25
ATOM     25  C   UNL     1      -3.243  12.200  26.093  0.00  0.00    +0.141 C 
BRANCH  25  28
ATOM     26  C   UNL     1      -3.012  11.397  23.767  0.00  0.00    +0.401 C 
ATOM     27  O   UNL     1      -2.956  10.207  24.084  0.00  0.00    -0.226 OA
ATOM     28  N   UNL     1      -3.140  12.396  24.641  0.00  0.00    -0.279 N 
ATOM     29  H   UNL     1      -3.167  13.341  24.285  0.00  0.00    +0.152 HD
BRANCH  26  30
ATOM     30  O   UNL     1      -2.934  11.753  22.384  0.00  0.00    -0.444 OA
BRANCH  30  31
ATOM     31  C   UNL     1      -4.225  12.156  21.920  0.00  0.00    +0.292 C 
BRANCH  31  33
ATOM     32  N   UNL     1      -4.440   9.906  20.908  0.00  0.00    -0.131 NA
ATOM     33  C   UNL     1      -4.697  11.251  20.855  0.00  0.00    +0.120 A 
ATOM     34  C   UNL     1      -5.397  11.531  19.702  0.00  0.00    +0.137 A 
ATOM     35  N   UNL     1      -5.467  10.328  19.063  0.00  0.00    -0.247 N 
ATOM     36  N   UNL     1      -4.937   9.345  19.814  0.00  0.00    -0.065 NA
BRANCH  35  37
ATOM     37  C   UNL     1      -5.955  10.052  17.720  0.00  0.00    +0.184 C 
BRANCH  37  38
ATOM     38  C   UNL     1      -4.931  10.343  16.641  0.00  0.00    +0.017 A 
ATOM     39  C   UNL     1      -4.819  11.605  16.027  0.00  0.00    +0.024 A 
ATOM     40  C   UNL     1      -3.863  11.837  15.034  0.00  0.00    +0.019 A 
ATOM     41 BR   UNL     1      -3.776  13.531  14.197  0.00  0.00    -0.050 Br
ATOM     42  C   UNL     1      -2.976  10.836  14.652  0.00  0.00    +0.034 A 
ATOM     43  C   UNL     1      -3.043   9.597  15.283  0.00  0.00    +0.061 A 
ATOM     44 BR   UNL     1      -1.809   8.248  14.785  0.00  0.00    -0.046 Br
ATOM     45  C   UNL     1      -4.008   9.355  16.271  0.00  0.00    +0.136 A 
BRANCH  45  46
ATOM     46  O   UNL     1      -4.073   8.145  16.910  0.00  0.00    -0.505 OA
ATOM     47  H   UNL     1      -3.468   7.535  16.447  0.00  0.00    +0.292 HD
ENDBRANCH  45  46
ENDBRANCH  37  38
ENDBRANCH  35  37
ENDBRANCH  31  33
ENDBRANCH  30  31
ENDBRANCH  26  30
ENDBRANCH  25  28
ENDBRANCH   1  25
TORSDOF 16
