REMARK VINA RESULT:    -4.847      3.137      6.066
REMARK INTER + INTRA:         -11.829
REMARK INTER:                  -9.959
REMARK INTRA:                  -1.869
REMARK UNBOUND:                -2.590
REMARK  Name = lig_assembled_29.pdb
REMARK  21 active torsions:
REMARK  status: ('A' for Active; 'I' for Inactive)
REMARK    1  A    between atoms: _2  and  _9
REMARK    2  A    between atoms: _4  and  _23
REMARK    3  A    between atoms: _6  and  _7
REMARK    4  A    between atoms: _6  and  _23
REMARK    5  A    between atoms: _9  and  _10
REMARK    6  A    between atoms: _12  and  _18
REMARK    7  A    between atoms: _13  and  _18
REMARK    8  A    between atoms: _14  and  _17
REMARK    9  A    between atoms: _15  and  _17
REMARK   10  A    between atoms: _19  and  _39
REMARK   11  A    between atoms: _21  and  _27
REMARK   12  A    between atoms: _22  and  _26
REMARK   13  A    between atoms: _26  and  _27
REMARK   14  A    between atoms: _29  and  _30
REMARK   15  A    between atoms: _31  and  _32
REMARK   16  A    between atoms: _33  and  _35
REMARK   17  A    between atoms: _35  and  _36
REMARK   18  A    between atoms: _35  and  _37
REMARK   19  A    between atoms: _37  and  _38
REMARK   20  A    between atoms: _37  and  _39
REMARK   21  A    between atoms: _40  and  _42
REMARK                            x       y       z     vdW  Elec       q    Type
REMARK                         _______ _______ _______ _____ _____    ______ ____
ROOT
ATOM      1  C   UNL     1      -5.913   9.935  21.219  0.00  0.00    +0.163 C 
ENDROOT
BRANCH   1   2
ATOM      2  O   UNL     1      -4.614   9.321  21.236  0.00  0.00    -0.388 OA
ATOM      3  H   UNL     1      -4.404   8.990  20.359  0.00  0.00    +0.210 HD
ENDBRANCH   1   2
BRANCH   1   4
ATOM      4  C   UNL     1      -6.093  10.876  22.422  0.00  0.00    +0.175 C 
BRANCH   4   5
ATOM      5  C   UNL     1      -4.955  10.733  23.443  0.00  0.00    +0.176 C 
ATOM      6  O   UNL     1      -5.551  10.618  24.764  0.00  0.00    -0.332 OA
ATOM      7  C   UNL     1      -4.613  10.366  25.863  0.00  0.00    +0.277 C 
ATOM      8  C   UNL     1      -3.502  11.444  25.883  0.00  0.00    +0.110 C 
ATOM      9  C   UNL     1      -2.859  11.625  24.491  0.00  0.00    +0.143 C 
ATOM     10  C   UNL     1      -3.925  11.878  23.424  0.00  0.00    +0.133 C 
BRANCH  10  11
ATOM     11  N   UNL     1      -3.308  11.962  22.091  0.00  0.00    -0.308 N 
ATOM     12  H   UNL     1      -2.867  11.132  21.721  0.00  0.00    +0.149 HD
ATOM     13  C   UNL     1      -3.293  13.065  21.337  0.00  0.00    +0.210 C 
ATOM     14  C   UNL     1      -3.951  14.321  21.939  0.00  0.00    +0.109 C 
ATOM     15  O   UNL     1      -2.782  13.102  20.217  0.00  0.00    -0.276 OA
ENDBRANCH  10  11
BRANCH   7  16
ATOM     16  C   UNL     1      -3.974   8.969  25.728  0.00  0.00    +0.414 C 
ATOM     17  O   UNL     1      -2.793   8.796  26.024  0.00  0.00    -0.240 OA
ATOM     18  O   UNL     1      -4.640   8.015  25.323  0.00  0.00    -0.240 OA
ENDBRANCH   7  16
BRANCH   7  19
ATOM     19  O   UNL     1      -5.351  10.447  27.110  0.00  0.00    -0.343 OA
ATOM     20  C   UNL     1      -4.799  11.363  28.089  0.00  0.00    +0.198 C 
ENDBRANCH   7  19
BRANCH   9  21
ATOM     21  O   UNL     1      -1.951  12.727  24.520  0.00  0.00    -0.390 OA
ATOM     22  H   UNL     1      -1.183  12.523  23.981  0.00  0.00    +0.210 HD
ENDBRANCH   9  21
ENDBRANCH   4   5
BRANCH   4  23
ATOM     23  O   UNL     1      -7.364  10.633  23.058  0.00  0.00    -0.387 OA
ATOM     24  H   UNL     1      -7.955  10.200  22.437  0.00  0.00    +0.210 HD
ENDBRANCH   4  23
ENDBRANCH   1   4
BRANCH   1  25
ATOM     25  C   UNL     1      -6.103  10.720  19.925  0.00  0.00    +0.141 C 
BRANCH  25  28
ATOM     26  C   UNL     1      -4.931  11.054  17.776  0.00  0.00    +0.401 C 
ATOM     27  O   UNL     1      -5.711  11.922  17.378  0.00  0.00    -0.226 OA
ATOM     28  N   UNL     1      -5.042  10.435  18.951  0.00  0.00    -0.279 N 
ATOM     29  H   UNL     1      -4.357   9.729  19.185  0.00  0.00    +0.152 HD
BRANCH  26  30
ATOM     30  O   UNL     1      -3.835  10.670  16.942  0.00  0.00    -0.444 OA
BRANCH  30  31
ATOM     31  C   UNL     1      -4.330   9.986  15.787  0.00  0.00    +0.292 C 
BRANCH  31  33
ATOM     32  N   UNL     1      -2.428   9.729  14.217  0.00  0.00    -0.131 NA
ATOM     33  C   UNL     1      -3.572  10.385  14.587  0.00  0.00    +0.120 A 
ATOM     34  C   UNL     1      -3.840  11.374  13.667  0.00  0.00    +0.137 A 
ATOM     35  N   UNL     1      -2.876  11.205  12.716  0.00  0.00    -0.247 N 
ATOM     36  N   UNL     1      -2.002  10.247  13.072  0.00  0.00    -0.065 NA
BRANCH  35  37
ATOM     37  C   UNL     1      -2.756  11.877  11.435  0.00  0.00    +0.180 C 
BRANCH  37  38
ATOM     38  C   UNL     1      -1.822  13.061  11.535  0.00  0.00    -0.022 A 
ATOM     39  C   UNL     1      -2.180  14.181  12.306  0.00  0.00    +0.054 A 
ATOM     40  C   UNL     1      -1.290  15.252  12.472  0.00  0.00    +0.162 A 
ATOM     41  C   UNL     1      -0.026  15.208  11.850  0.00  0.00    +0.162 A 
ATOM     42  C   UNL     1       0.327  14.095  11.084  0.00  0.00    +0.050 A 
ATOM     43  C   UNL     1      -0.564  13.030  10.926  0.00  0.00    +0.009 A 
BRANCH  40  44
ATOM     44  O   UNL     1      -1.556  16.369  13.224  0.00  0.00    -0.491 OA
ATOM     45  C   UNL     1      -2.596  17.232  12.787  0.00  0.00    +0.277 C 
ENDBRANCH  40  44
BRANCH  41  46
ATOM     46  O   UNL     1       0.786  16.298  12.054  0.00  0.00    -0.491 OA
ATOM     47  C   UNL     1       1.017  17.164  10.953  0.00  0.00    +0.277 C 
ENDBRANCH  41  46
ENDBRANCH  37  38
ENDBRANCH  35  37
ENDBRANCH  31  33
ENDBRANCH  30  31
ENDBRANCH  26  30
ENDBRANCH  25  28
ENDBRANCH   1  25
TORSDOF 17
