REMARK VINA RESULT:    -3.502      2.913      7.552
REMARK INTER + INTRA:         -11.684
REMARK INTER:                  -7.663
REMARK INTRA:                  -4.022
REMARK UNBOUND:                -4.498
REMARK  Name = lig_assembled_33.pdb
REMARK  22 active torsions:
REMARK  status: ('A' for Active; 'I' for Inactive)
REMARK    1  A    between atoms: _2  and  _9
REMARK    2  A    between atoms: _4  and  _20
REMARK    3  A    between atoms: _5  and  _13
REMARK    4  A    between atoms: _5  and  _14
REMARK    5  A    between atoms: _6  and  _7
REMARK    6  A    between atoms: _6  and  _20
REMARK    7  A    between atoms: _9  and  _10
REMARK    8  A    between atoms: _10  and  _11
REMARK    9  A    between atoms: _11  and  _12
REMARK   10  A    between atoms: _12  and  _13
REMARK   11  A    between atoms: _16  and  _36
REMARK   12  A    between atoms: _18  and  _24
REMARK   13  A    between atoms: _19  and  _23
REMARK   14  A    between atoms: _23  and  _24
REMARK   15  A    between atoms: _26  and  _27
REMARK   16  A    between atoms: _28  and  _29
REMARK   17  A    between atoms: _30  and  _32
REMARK   18  A    between atoms: _32  and  _33
REMARK   19  A    between atoms: _32  and  _34
REMARK   20  A    between atoms: _34  and  _35
REMARK   21  A    between atoms: _34  and  _36
REMARK   22  A    between atoms: _37  and  _39
REMARK                            x       y       z     vdW  Elec       q    Type
REMARK                         _______ _______ _______ _____ _____    ______ ____
ROOT
ATOM      1  C   UNL     1      -2.870  11.199  25.713  0.00  0.00    +0.163 C 
ENDROOT
BRANCH   1   2
ATOM      2  O   UNL     1      -1.968  12.248  25.323  0.00  0.00    -0.388 OA
ATOM      3  H   UNL     1      -2.235  13.071  25.739  0.00  0.00    +0.210 HD
ENDBRANCH   1   2
BRANCH   1   4
ATOM      4  C   UNL     1      -3.641  10.656  24.497  0.00  0.00    +0.175 C 
BRANCH   4   5
ATOM      5  C   UNL     1      -4.736  11.625  24.028  0.00  0.00    +0.176 C 
ATOM      6  O   UNL     1      -4.088  12.738  23.351  0.00  0.00    -0.332 OA
ATOM      7  C   UNL     1      -4.990  13.718  22.739  0.00  0.00    +0.277 C 
ATOM      8  C   UNL     1      -5.996  14.256  23.785  0.00  0.00    +0.110 C 
ATOM      9  C   UNL     1      -6.687  13.110  24.553  0.00  0.00    +0.143 C 
ATOM     10  C   UNL     1      -5.656  12.148  25.146  0.00  0.00    +0.133 C 
BRANCH  10  11
ATOM     11  N   UNL     1      -6.327  11.014  25.801  0.00  0.00    -0.308 N 
ATOM     12  H   UNL     1      -6.815  10.352  25.213  0.00  0.00    +0.149 HD
ATOM     13  C   UNL     1      -6.334  10.802  27.119  0.00  0.00    +0.210 C 
ATOM     14  C   UNL     1      -5.603  11.842  27.989  0.00  0.00    +0.109 C 
ATOM     15  O   UNL     1      -6.892   9.834  27.638  0.00  0.00    -0.276 OA
ENDBRANCH  10  11
BRANCH   7  16
ATOM     16  C   UNL     1      -5.760  13.091  21.558  0.00  0.00    +0.414 C 
ATOM     17  O   UNL     1      -5.197  12.300  20.802  0.00  0.00    -0.240 OA
ATOM     18  O   UNL     1      -6.942  13.374  21.362  0.00  0.00    -0.240 OA
ENDBRANCH   7  16
BRANCH   9  19
ATOM     19  O   UNL     1      -7.488  13.649  25.605  0.00  0.00    -0.390 OA
ATOM     20  H   UNL     1      -7.071  13.468  26.451  0.00  0.00    +0.210 HD
ENDBRANCH   9  19
BRANCH   7  21
ATOM     21  O   UNL     1      -4.187  14.829  22.262  0.00  0.00    -0.343 OA
ATOM     22  C   UNL     1      -4.865  16.111  22.244  0.00  0.00    +0.198 C 
ENDBRANCH   7  21
ENDBRANCH   4   5
BRANCH   4  23
ATOM     23  O   UNL     1      -4.214   9.371  24.807  0.00  0.00    -0.387 OA
ATOM     24  H   UNL     1      -4.792   9.453  25.569  0.00  0.00    +0.210 HD
ENDBRANCH   4  23
ENDBRANCH   1   4
BRANCH   1  25
ATOM     25  C   UNL     1      -2.095  10.064  26.374  0.00  0.00    +0.141 C 
BRANCH  25  28
ATOM     26  C   UNL     1      -3.305   8.634  27.986  0.00  0.00    +0.401 C 
ATOM     27  O   UNL     1      -3.577   7.764  27.154  0.00  0.00    -0.226 OA
ATOM     28  N   UNL     1      -2.622   9.745  27.707  0.00  0.00    -0.279 N 
ATOM     29  H   UNL     1      -2.457  10.404  28.454  0.00  0.00    +0.152 HD
BRANCH  26  30
ATOM     30  O   UNL     1      -3.743   8.464  29.336  0.00  0.00    -0.444 OA
BRANCH  30  31
ATOM     31  C   UNL     1      -2.774   9.023  30.227  0.00  0.00    +0.292 C 
BRANCH  31  33
ATOM     32  N   UNL     1      -2.725  10.358  32.308  0.00  0.00    -0.131 NA
ATOM     33  C   UNL     1      -3.434   9.857  31.248  0.00  0.00    +0.120 A 
ATOM     34  C   UNL     1      -4.748  10.260  31.354  0.00  0.00    +0.137 A 
ATOM     35  N   UNL     1      -4.768  11.009  32.491  0.00  0.00    -0.251 N 
ATOM     36  N   UNL     1      -3.557  11.052  33.071  0.00  0.00    -0.065 NA
BRANCH  35  37
ATOM     37  C   UNL     1      -5.892  11.697  33.092  0.00  0.00    +0.145 C 
BRANCH  37  38
ATOM     38  C   UNL     1      -5.857  13.200  32.821  0.00  0.00    +0.023 C 
BRANCH  38  39
ATOM     39  C   UNL     1      -6.050  13.536  31.340  0.00  0.00    +0.002 C 
BRANCH  39  40
ATOM     40  C   UNL     1      -4.952  14.496  30.876  0.00  0.00    +0.011 C 
BRANCH  40  41
ATOM     41  C   UNL     1      -3.639  13.785  30.557  0.00  0.00    +0.120 C 
BRANCH  41  42
ATOM     42  C   UNL     1      -2.596  14.057  31.619  0.00  0.00    +0.305 C 
ATOM     43  O   UNL     1      -2.579  15.025  32.362  0.00  0.00    -0.251 OA
BRANCH  42  44
ATOM     44  O   UNL     1      -1.653  13.088  31.675  0.00  0.00    -0.481 OA
ATOM     45  H   UNL     1      -1.105  13.116  32.480  0.00  0.00    +0.295 HD
ENDBRANCH  42  44
ENDBRANCH  41  42
ENDBRANCH  40  41
ENDBRANCH  39  40
ENDBRANCH  38  39
ENDBRANCH  37  38
ENDBRANCH  35  37
ENDBRANCH  31  33
ENDBRANCH  30  31
ENDBRANCH  26  30
ENDBRANCH  25  28
ENDBRANCH   1  25
TORSDOF 20
