REMARK VINA RESULT:    -3.757     11.199     16.619
REMARK INTER + INTRA:         -12.209
REMARK INTER:                  -8.097
REMARK INTRA:                  -4.112
REMARK UNBOUND:                -4.498
REMARK  Name = lig_assembled_33.pdb
REMARK  22 active torsions:
REMARK  status: ('A' for Active; 'I' for Inactive)
REMARK    1  A    between atoms: _2  and  _9
REMARK    2  A    between atoms: _4  and  _20
REMARK    3  A    between atoms: _5  and  _13
REMARK    4  A    between atoms: _5  and  _14
REMARK    5  A    between atoms: _6  and  _7
REMARK    6  A    between atoms: _6  and  _20
REMARK    7  A    between atoms: _9  and  _10
REMARK    8  A    between atoms: _10  and  _11
REMARK    9  A    between atoms: _11  and  _12
REMARK   10  A    between atoms: _12  and  _13
REMARK   11  A    between atoms: _16  and  _36
REMARK   12  A    between atoms: _18  and  _24
REMARK   13  A    between atoms: _19  and  _23
REMARK   14  A    between atoms: _23  and  _24
REMARK   15  A    between atoms: _26  and  _27
REMARK   16  A    between atoms: _28  and  _29
REMARK   17  A    between atoms: _30  and  _32
REMARK   18  A    between atoms: _32  and  _33
REMARK   19  A    between atoms: _32  and  _34
REMARK   20  A    between atoms: _34  and  _35
REMARK   21  A    between atoms: _34  and  _36
REMARK   22  A    between atoms: _37  and  _39
REMARK                            x       y       z     vdW  Elec       q    Type
REMARK                         _______ _______ _______ _____ _____    ______ ____
ROOT
ATOM      1  C   UNL     1      -2.226  13.241  12.023  0.00  0.00    +0.163 C 
ENDROOT
BRANCH   1   2
ATOM      2  O   UNL     1      -1.615  13.359  13.318  0.00  0.00    -0.388 OA
ATOM      3  H   UNL     1      -0.669  13.488  13.215  0.00  0.00    +0.210 HD
ENDBRANCH   1   2
BRANCH   1   4
ATOM      4  C   UNL     1      -1.173  12.941  10.943  0.00  0.00    +0.175 C 
BRANCH   4   5
ATOM      5  C   UNL     1      -0.504  14.219  10.417  0.00  0.00    +0.176 C 
ATOM      6  O   UNL     1       0.489  14.638  11.393  0.00  0.00    -0.332 OA
ATOM      7  C   UNL     1       1.308  15.792  11.009  0.00  0.00    +0.277 C 
ATOM      8  C   UNL     1       0.408  16.993  10.629  0.00  0.00    +0.110 C 
ATOM      9  C   UNL     1      -0.684  16.588   9.616  0.00  0.00    +0.143 C 
ATOM     10  C   UNL     1      -1.473  15.377  10.115  0.00  0.00    +0.133 C 
BRANCH  10  11
ATOM     11  N   UNL     1      -2.451  14.947   9.103  0.00  0.00    -0.308 N 
ATOM     12  H   UNL     1      -2.099  14.533   8.252  0.00  0.00    +0.149 HD
ATOM     13  C   UNL     1      -3.775  15.070   9.236  0.00  0.00    +0.210 C 
ATOM     14  C   UNL     1      -4.279  15.730  10.533  0.00  0.00    +0.109 C 
ATOM     15  O   UNL     1      -4.571  14.688   8.378  0.00  0.00    -0.276 OA
ENDBRANCH  10  11
BRANCH   7  16
ATOM     16  C   UNL     1       2.226  15.439   9.820  0.00  0.00    +0.414 C 
ATOM     17  O   UNL     1       2.833  14.369   9.801  0.00  0.00    -0.240 OA
ATOM     18  O   UNL     1       2.359  16.224   8.880  0.00  0.00    -0.240 OA
ENDBRANCH   7  16
BRANCH   9  19
ATOM     19  O   UNL     1      -1.580  17.681   9.411  0.00  0.00    -0.390 OA
ATOM     20  H   UNL     1      -2.236  17.693  10.111  0.00  0.00    +0.210 HD
ENDBRANCH   9  19
BRANCH   7  21
ATOM     21  O   UNL     1       2.116  16.169  12.154  0.00  0.00    -0.343 OA
ATOM     22  C   UNL     1       2.522  17.561  12.184  0.00  0.00    +0.198 C 
ENDBRANCH   7  21
ENDBRANCH   4   5
BRANCH   4  23
ATOM     23  O   UNL     1      -1.772  12.210   9.854  0.00  0.00    -0.387 OA
ATOM     24  H   UNL     1      -1.306  12.409   9.039  0.00  0.00    +0.210 HD
ENDBRANCH   4  23
ENDBRANCH   1   4
BRANCH   1  25
ATOM     25  C   UNL     1      -3.272  12.131  12.038  0.00  0.00    +0.141 C 
BRANCH  25  28
ATOM     26  C   UNL     1      -2.713   9.733  11.825  0.00  0.00    +0.401 C 
ATOM     27  O   UNL     1      -3.182   9.629  10.689  0.00  0.00    -0.226 OA
ATOM     28  N   UNL     1      -2.718  10.864  12.532  0.00  0.00    -0.279 N 
ATOM     29  H   UNL     1      -2.318  10.849  13.459  0.00  0.00    +0.152 HD
BRANCH  26  30
ATOM     30  O   UNL     1      -2.128   8.585  12.443  0.00  0.00    -0.444 OA
BRANCH  30  31
ATOM     31  C   UNL     1      -3.153   7.644  12.772  0.00  0.00    +0.292 C 
BRANCH  31  33
ATOM     32  N   UNL     1      -2.794   8.298  15.130  0.00  0.00    -0.131 NA
ATOM     33  C   UNL     1      -3.645   7.876  14.142  0.00  0.00    +0.120 A 
ATOM     34  C   UNL     1      -4.911   7.733  14.669  0.00  0.00    +0.137 A 
ATOM     35  N   UNL     1      -4.762   8.091  15.975  0.00  0.00    -0.251 N 
ATOM     36  N   UNL     1      -3.488   8.413  16.253  0.00  0.00    -0.065 NA
BRANCH  35  37
ATOM     37  C   UNL     1      -5.772   8.138  17.012  0.00  0.00    +0.145 C 
BRANCH  37  38
ATOM     38  C   UNL     1      -5.750   9.461  17.775  0.00  0.00    +0.023 C 
BRANCH  38  39
ATOM     39  C   UNL     1      -6.771  10.468  17.239  0.00  0.00    +0.002 C 
BRANCH  39  40
ATOM     40  C   UNL     1      -6.044  11.658  16.608  0.00  0.00    +0.011 C 
BRANCH  40  41
ATOM     41  C   UNL     1      -4.566  11.718  16.984  0.00  0.00    +0.120 C 
BRANCH  41  42
ATOM     42  C   UNL     1      -3.730  12.247  15.840  0.00  0.00    +0.305 C 
ATOM     43  O   UNL     1      -3.884  13.327  15.292  0.00  0.00    -0.251 OA
BRANCH  42  44
ATOM     44  O   UNL     1      -2.756  11.383  15.471  0.00  0.00    -0.481 OA
ATOM     45  H   UNL     1      -2.976  10.448  15.635  0.00  0.00    +0.295 HD
ENDBRANCH  42  44
ENDBRANCH  41  42
ENDBRANCH  40  41
ENDBRANCH  39  40
ENDBRANCH  38  39
ENDBRANCH  37  38
ENDBRANCH  35  37
ENDBRANCH  31  33
ENDBRANCH  30  31
ENDBRANCH  26  30
ENDBRANCH  25  28
ENDBRANCH   1  25
TORSDOF 20
