REMARK VINA RESULT:    -4.209      2.640      7.327
REMARK INTER + INTRA:         -11.070
REMARK INTER:                  -7.008
REMARK INTRA:                  -4.062
REMARK UNBOUND:                -3.048
REMARK  Name = lig_assembled_50.pdb
REMARK  20 active torsions:
REMARK  status: ('A' for Active; 'I' for Inactive)
REMARK    1  A    between atoms: _2  and  _9
REMARK    2  A    between atoms: _4  and  _17
REMARK    3  A    between atoms: _5  and  _10
REMARK    4  A    between atoms: _5  and  _11
REMARK    5  A    between atoms: _6  and  _7
REMARK    6  A    between atoms: _6  and  _17
REMARK    7  A    between atoms: _9  and  _10
REMARK    8  A    between atoms: _10  and  _12
REMARK    9  A    between atoms: _13  and  _33
REMARK   10  A    between atoms: _15  and  _21
REMARK   11  A    between atoms: _16  and  _20
REMARK   12  A    between atoms: _20  and  _21
REMARK   13  A    between atoms: _23  and  _24
REMARK   14  A    between atoms: _25  and  _26
REMARK   15  A    between atoms: _27  and  _29
REMARK   16  A    between atoms: _29  and  _30
REMARK   17  A    between atoms: _29  and  _31
REMARK   18  A    between atoms: _31  and  _32
REMARK   19  A    between atoms: _31  and  _33
REMARK   20  A    between atoms: _34  and  _36
REMARK                            x       y       z     vdW  Elec       q    Type
REMARK                         _______ _______ _______ _____ _____    ______ ____
ROOT
ATOM      1  C   UNL     1      -5.579  12.452  28.938  0.00  0.00    +0.163 C 
ENDROOT
BRANCH   1   2
ATOM      2  O   UNL     1      -6.526  12.232  27.879  0.00  0.00    -0.388 OA
ATOM      3  H   UNL     1      -6.801  11.312  27.881  0.00  0.00    +0.210 HD
ENDBRANCH   1   2
BRANCH   1   4
ATOM      4  C   UNL     1      -4.174  11.981  28.526  0.00  0.00    +0.175 C 
BRANCH   4   5
ATOM      5  C   UNL     1      -4.215  10.677  27.716  0.00  0.00    +0.176 C 
ATOM      6  O   UNL     1      -3.386   9.699  28.401  0.00  0.00    -0.332 OA
ATOM      7  C   UNL     1      -3.389   8.351  27.825  0.00  0.00    +0.277 C 
ATOM      8  C   UNL     1      -3.007   8.402  26.325  0.00  0.00    +0.110 C 
ATOM      9  C   UNL     1      -3.841   9.452  25.561  0.00  0.00    +0.143 C 
ATOM     10  C   UNL     1      -3.770  10.816  26.248  0.00  0.00    +0.133 C 
BRANCH  10  11
ATOM     11  N   UNL     1      -4.637  11.785  25.561  0.00  0.00    -0.308 N 
ATOM     12  H   UNL     1      -5.636  11.691  25.679  0.00  0.00    +0.149 HD
ATOM     13  C   UNL     1      -4.190  12.781  24.791  0.00  0.00    +0.210 C 
ATOM     14  C   UNL     1      -2.664  12.882  24.610  0.00  0.00    +0.109 C 
ATOM     15  O   UNL     1      -4.940  13.588  24.239  0.00  0.00    -0.276 OA
ENDBRANCH  10  11
BRANCH   7  16
ATOM     16  C   UNL     1      -4.775   7.692  27.982  0.00  0.00    +0.414 C 
ATOM     17  O   UNL     1      -5.325   7.167  27.015  0.00  0.00    -0.240 OA
ATOM     18  O   UNL     1      -5.344   7.686  29.075  0.00  0.00    -0.240 OA
ENDBRANCH   7  16
BRANCH   9  19
ATOM     19  O   UNL     1      -3.355   9.573  24.224  0.00  0.00    -0.390 OA
ATOM     20  H   UNL     1      -3.581   8.782  23.728  0.00  0.00    +0.210 HD
ENDBRANCH   9  19
BRANCH   7  21
ATOM     21  O   UNL     1      -2.392   7.562  28.524  0.00  0.00    -0.343 OA
ATOM     22  C   UNL     1      -2.227   6.208  28.032  0.00  0.00    +0.198 C 
ENDBRANCH   7  21
ENDBRANCH   4   5
BRANCH   4  23
ATOM     23  O   UNL     1      -3.344  11.815  29.693  0.00  0.00    -0.387 OA
ATOM     24  H   UNL     1      -3.899  11.724  30.471  0.00  0.00    +0.210 HD
ENDBRANCH   4  23
ENDBRANCH   1   4
BRANCH   1  25
ATOM     25  C   UNL     1      -5.535  13.933  29.299  0.00  0.00    +0.141 C 
BRANCH  25  28
ATOM     26  C   UNL     1      -4.435  14.954  31.262  0.00  0.00    +0.401 C 
ATOM     27  O   UNL     1      -3.635  15.610  30.590  0.00  0.00    -0.226 OA
ATOM     28  N   UNL     1      -5.353  14.139  30.741  0.00  0.00    -0.279 N 
ATOM     29  H   UNL     1      -5.958  13.636  31.375  0.00  0.00    +0.152 HD
BRANCH  26  30
ATOM     30  O   UNL     1      -4.390  15.054  32.688  0.00  0.00    -0.444 OA
BRANCH  30  31
ATOM     31  C   UNL     1      -3.098  14.657  33.154  0.00  0.00    +0.292 C 
BRANCH  31  33
ATOM     32  N   UNL     1      -1.906  12.674  32.263  0.00  0.00    -0.131 NA
ATOM     33  C   UNL     1      -2.926  13.196  33.018  0.00  0.00    +0.120 A 
ATOM     34  C   UNL     1      -3.657  12.162  33.564  0.00  0.00    +0.137 A 
ATOM     35  N   UNL     1      -3.040  11.045  33.099  0.00  0.00    -0.249 N 
ATOM     36  N   UNL     1      -1.977  11.354  32.331  0.00  0.00    -0.065 NA
BRANCH  35  37
ATOM     37  C   UNL     1      -3.394   9.662  33.326  0.00  0.00    +0.178 C 
BRANCH  37  38
ATOM     38  C   UNL     1      -4.086   8.991  32.134  0.00  0.00    +0.161 C 
BRANCH  38  39
ATOM     39  O   UNL     1      -3.239   8.898  30.986  0.00  0.00    -0.388 OA
ATOM     40  H   UNL     1      -2.315   9.061  31.266  0.00  0.00    +0.210 HD
ENDBRANCH  38  39
BRANCH  38  41
ATOM     41  C   UNL     1      -4.669   7.610  32.461  0.00  0.00    +0.189 C 
BRANCH  41  42
ATOM     42  O   UNL     1      -4.165   6.610  31.575  0.00  0.00    -0.392 OA
ATOM     43  H   UNL     1      -4.585   6.737  30.704  0.00  0.00    +0.210 HD
ENDBRANCH  41  42
ENDBRANCH  38  41
ENDBRANCH  37  38
ENDBRANCH  35  37
ENDBRANCH  31  33
ENDBRANCH  30  31
ENDBRANCH  26  30
ENDBRANCH  25  28
ENDBRANCH   1  25
TORSDOF 18
