REMARK VINA RESULT:    -5.337      7.457     12.383
REMARK INTER + INTRA:         -11.995
REMARK INTER:                  -8.546
REMARK INTRA:                  -3.449
REMARK UNBOUND:                -2.447
REMARK  Name = lig_assembled_85.pdb
REMARK  19 active torsions:
REMARK  status: ('A' for Active; 'I' for Inactive)
REMARK    1  A    between atoms: _2  and  _10
REMARK    2  A    between atoms: _3  and  _6
REMARK    3  A    between atoms: _3  and  _17
REMARK    4  A    between atoms: _5  and  _23
REMARK    5  A    between atoms: _7  and  _8
REMARK    6  A    between atoms: _7  and  _23
REMARK    7  A    between atoms: _15  and  _16
REMARK    8  A    between atoms: _19  and  _39
REMARK    9  A    between atoms: _21  and  _27
REMARK   10  A    between atoms: _22  and  _26
REMARK   11  A    between atoms: _26  and  _27
REMARK   12  A    between atoms: _29  and  _30
REMARK   13  A    between atoms: _31  and  _32
REMARK   14  A    between atoms: _33  and  _35
REMARK   15  A    between atoms: _35  and  _36
REMARK   16  A    between atoms: _35  and  _37
REMARK   17  A    between atoms: _37  and  _38
REMARK   18  A    between atoms: _37  and  _39
REMARK   19  A    between atoms: _40  and  _42
REMARK                            x       y       z     vdW  Elec       q    Type
REMARK                         _______ _______ _______ _____ _____    ______ ____
ROOT
ATOM      1  C   UNL     1      -3.843  13.228  24.099  0.00  0.00    +0.141 C 
ENDROOT
BRANCH   1   4
ATOM      2  C   UNL     1      -5.876  13.031  25.491  0.00  0.00    +0.401 C 
ATOM      3  O   UNL     1      -6.631  12.865  24.531  0.00  0.00    -0.226 OA
ATOM      4  N   UNL     1      -4.559  13.215  25.381  0.00  0.00    -0.279 N 
ATOM      5  H   UNL     1      -4.024  13.353  26.227  0.00  0.00    +0.152 HD
BRANCH   2   6
ATOM      6  O   UNL     1      -6.422  13.036  26.812  0.00  0.00    -0.444 OA
BRANCH   6   7
ATOM      7  C   UNL     1      -5.675  12.143  27.642  0.00  0.00    +0.292 C 
BRANCH   7   9
ATOM      8  N   UNL     1      -6.412  13.102  29.794  0.00  0.00    -0.131 NA
ATOM      9  C   UNL     1      -5.395  12.771  28.945  0.00  0.00    +0.121 A 
ATOM     10  C   UNL     1      -4.190  13.067  29.540  0.00  0.00    +0.143 A 
ATOM     11  N   UNL     1      -4.526  13.579  30.769  0.00  0.00    -0.219 N 
ATOM     12  N   UNL     1      -5.873  13.568  30.911  0.00  0.00    -0.060 NA
BRANCH  11  13
ATOM     13  C   UNL     1      -3.692  13.983  31.834  0.00  0.00    +0.080 A 
ATOM     14  C   UNL     1      -3.013  13.096  32.684  0.00  0.00    +0.062 A 
ATOM     15  C   UNL     1      -2.422  13.629  33.853  0.00  0.00    +0.016 A 
ATOM     16  C   UNL     1      -2.479  14.994  34.155  0.00  0.00    +0.021 A 
ATOM     17  C   UNL     1      -3.091  15.863  33.265  0.00  0.00    +0.043 A 
ATOM     18 CL   UNL     1      -3.201  17.539  33.636  0.00  0.00    -0.083 Cl
ATOM     19  C   UNL     1      -3.670  15.372  32.099  0.00  0.00    +0.048 A 
BRANCH  14  20
ATOM     20  C   UNL     1      -2.885  11.612  32.571  0.00  0.00    +0.248 C 
ATOM     21  O   UNL     1      -1.835  11.216  32.060  0.00  0.00    -0.270 OA
ATOM     22  N   UNL     1      -3.890  10.712  32.944  0.00  0.00    -0.304 N 
ATOM     23  C   UNL     1      -5.120  10.997  33.671  0.00  0.00    +0.132 C 
ATOM     24  C   UNL     1      -3.594   9.296  32.753  0.00  0.00    +0.132 C 
ENDBRANCH  14  20
ENDBRANCH  11  13
ENDBRANCH   7   9
ENDBRANCH   6   7
ENDBRANCH   2   6
ENDBRANCH   1   4
BRANCH   1  25
ATOM     25  C   UNL     1      -2.905  12.034  23.960  0.00  0.00    +0.163 C 
BRANCH  25  26
ATOM     26  O   UNL     1      -2.194  11.821  25.190  0.00  0.00    -0.388 OA
ATOM     27  H   UNL     1      -2.072  12.661  25.639  0.00  0.00    +0.210 HD
ENDBRANCH  25  26
BRANCH  25  28
ATOM     28  C   UNL     1      -3.717  10.786  23.571  0.00  0.00    +0.175 C 
BRANCH  28  29
ATOM     29  C   UNL     1      -4.073   9.925  24.792  0.00  0.00    +0.176 C 
ATOM     30  O   UNL     1      -2.893   9.158  25.159  0.00  0.00    -0.332 OA
ATOM     31  C   UNL     1      -3.015   8.351  26.377  0.00  0.00    +0.277 C 
ATOM     32  C   UNL     1      -4.241   7.411  26.282  0.00  0.00    +0.110 C 
ATOM     33  C   UNL     1      -5.515   8.175  25.863  0.00  0.00    +0.143 C 
ATOM     34  C   UNL     1      -5.275   8.983  24.587  0.00  0.00    +0.133 C 
BRANCH  34  35
ATOM     35  N   UNL     1      -6.467   9.775  24.247  0.00  0.00    -0.308 N 
ATOM     36  H   UNL     1      -6.782  10.465  24.915  0.00  0.00    +0.149 HD
ATOM     37  C   UNL     1      -7.161   9.642  23.114  0.00  0.00    +0.210 C 
ATOM     38  C   UNL     1      -6.672   8.564  22.128  0.00  0.00    +0.109 C 
ATOM     39  O   UNL     1      -8.148  10.329  22.849  0.00  0.00    -0.276 OA
ENDBRANCH  34  35
BRANCH  31  40
ATOM     40  C   UNL     1      -3.152   9.254  27.620  0.00  0.00    +0.414 C 
ATOM     41  O   UNL     1      -3.924   8.947  28.527  0.00  0.00    -0.240 OA
ATOM     42  O   UNL     1      -2.492  10.290  27.715  0.00  0.00    -0.240 OA
ENDBRANCH  31  40
BRANCH  33  43
ATOM     43  O   UNL     1      -6.581   7.251  25.642  0.00  0.00    -0.390 OA
ATOM     44  H   UNL     1      -6.311   6.602  24.988  0.00  0.00    +0.210 HD
ENDBRANCH  33  43
BRANCH  31  45
ATOM     45  O   UNL     1      -1.821   7.535  26.495  0.00  0.00    -0.343 OA
ATOM     46  C   UNL     1      -2.023   6.241  27.117  0.00  0.00    +0.198 C 
ENDBRANCH  31  45
ENDBRANCH  28  29
BRANCH  28  47
ATOM     47  O   UNL     1      -2.988  10.001  22.606  0.00  0.00    -0.387 OA
ATOM     48  H   UNL     1      -3.296   9.092  22.634  0.00  0.00    +0.210 HD
ENDBRANCH  28  47
ENDBRANCH  25  28
ENDBRANCH   1  25
TORSDOF 15
