REMARK VINA RESULT:    -5.109      4.947     10.158
REMARK INTER + INTRA:         -10.877
REMARK INTER:                  -8.445
REMARK INTRA:                  -2.432
REMARK UNBOUND:                -2.334
REMARK  Name = lig_assembled_65.pdb
REMARK  16 active torsions:
REMARK  status: ('A' for Active; 'I' for Inactive)
REMARK    1  A    between atoms: _8  and  _20
REMARK    2  A    between atoms: _9  and  _15
REMARK    3  A    between atoms: _10  and  _11
REMARK    4  A    between atoms: _10  and  _20
REMARK    5  A    between atoms: _16  and  _36
REMARK    6  A    between atoms: _18  and  _24
REMARK    7  A    between atoms: _19  and  _23
REMARK    8  A    between atoms: _23  and  _24
REMARK    9  A    between atoms: _26  and  _27
REMARK   10  A    between atoms: _28  and  _29
REMARK   11  A    between atoms: _30  and  _32
REMARK   12  A    between atoms: _32  and  _33
REMARK   13  A    between atoms: _32  and  _34
REMARK   14  A    between atoms: _34  and  _35
REMARK   15  A    between atoms: _34  and  _36
REMARK   16  A    between atoms: _37  and  _39
REMARK                            x       y       z     vdW  Elec       q    Type
REMARK                         _______ _______ _______ _____ _____    ______ ____
ROOT
ATOM      1  C   UNL     1      -6.396   9.369  23.386  0.00  0.00    +0.163 C 
ENDROOT
BRANCH   1   2
ATOM      2  O   UNL     1      -6.903   9.634  24.705  0.00  0.00    -0.388 OA
ATOM      3  H   UNL     1      -7.845   9.813  24.656  0.00  0.00    +0.210 HD
ENDBRANCH   1   2
BRANCH   1   4
ATOM      4  C   UNL     1      -7.395   8.524  22.603  0.00  0.00    +0.141 C 
BRANCH   4   7
ATOM      5  C   UNL     1      -7.316   8.639  20.136  0.00  0.00    +0.401 C 
ATOM      6  O   UNL     1      -6.608   7.636  20.018  0.00  0.00    -0.226 OA
ATOM      7  N   UNL     1      -7.726   9.128  21.307  0.00  0.00    -0.279 N 
ATOM      8  H   UNL     1      -8.297   9.962  21.302  0.00  0.00    +0.152 HD
BRANCH   5   9
ATOM      9  O   UNL     1      -7.731   9.338  18.960  0.00  0.00    -0.444 OA
BRANCH   9  10
ATOM     10  C   UNL     1      -7.287  10.696  19.030  0.00  0.00    +0.292 C 
BRANCH  10  12
ATOM     11  N   UNL     1      -6.643  12.227  17.193  0.00  0.00    -0.131 NA
ATOM     12  C   UNL     1      -6.478  11.035  17.844  0.00  0.00    +0.121 A 
ATOM     13  C   UNL     1      -5.497  10.310  17.211  0.00  0.00    +0.149 A 
ATOM     14  N   UNL     1      -5.091  11.104  16.159  0.00  0.00    -0.155 N 
ATOM     15  C   UNL     1      -4.099  10.797  15.182  0.00  0.00    +0.416 C 
ATOM     16  N   UNL     1      -3.837  11.700  14.230  0.00  0.00    +0.041 NA
ATOM     17  C   UNL     1      -2.912  11.334  13.345  0.00  0.00    +0.339 C 
ATOM     18  C   UNL     1      -2.585  12.297  12.247  0.00  0.00    +0.149 C 
ATOM     19  N   UNL     1      -2.268  10.167  13.363  0.00  0.00    +0.007 NA
ATOM     20  C   UNL     1      -2.611   9.340  14.338  0.00  0.00    +0.386 C 
ATOM     21  N   UNL     1      -1.977   8.117  14.386  0.00  0.00    -0.296 N 
ATOM     22  H   UNL     1      -1.094   8.153  13.896  0.00  0.00    +0.148 HD
ATOM     23  H   UNL     1      -1.977   7.740  15.323  0.00  0.00    +0.148 HD
ATOM     24  N   UNL     1      -3.497   9.603  15.283  0.00  0.00    -0.290 NA
ATOM     25  N   UNL     1      -5.795  12.264  16.172  0.00  0.00    -0.055 NA
ENDBRANCH  10  12
ENDBRANCH   9  10
ENDBRANCH   5   9
ENDBRANCH   4   7
ENDBRANCH   1   4
BRANCH   1  26
ATOM     26  C   UNL     1      -5.045   8.636  23.454  0.00  0.00    +0.175 C 
BRANCH  26  27
ATOM     27  C   UNL     1      -3.970   9.472  24.164  0.00  0.00    +0.176 C 
ATOM     28  O   UNL     1      -4.298   9.512  25.580  0.00  0.00    -0.332 OA
ATOM     29  C   UNL     1      -3.317  10.182  26.439  0.00  0.00    +0.277 C 
ATOM     30  C   UNL     1      -3.039  11.616  25.926  0.00  0.00    +0.110 C 
ATOM     31  C   UNL     1      -2.716  11.628  24.417  0.00  0.00    +0.143 C 
ATOM     32  C   UNL     1      -3.799  10.902  23.618  0.00  0.00    +0.133 C 
BRANCH  32  33
ATOM     33  N   UNL     1      -3.438  10.844  22.193  0.00  0.00    -0.308 N 
ATOM     34  H   UNL     1      -2.651  10.268  21.929  0.00  0.00    +0.149 HD
ATOM     35  C   UNL     1      -4.081  11.503  21.226  0.00  0.00    +0.210 C 
ATOM     36  C   UNL     1      -5.260  12.392  21.664  0.00  0.00    +0.109 C 
ATOM     37  O   UNL     1      -3.765  11.424  20.038  0.00  0.00    -0.276 OA
ENDBRANCH  32  33
BRANCH  29  38
ATOM     38  C   UNL     1      -1.996   9.386  26.487  0.00  0.00    +0.414 C 
ATOM     39  O   UNL     1      -0.918   9.977  26.544  0.00  0.00    -0.240 OA
ATOM     40  O   UNL     1      -2.009   8.155  26.467  0.00  0.00    -0.240 OA
ENDBRANCH  29  38
BRANCH  29  41
ATOM     41  O   UNL     1      -3.879  10.276  27.774  0.00  0.00    -0.343 OA
ATOM     42  C   UNL     1      -4.150  11.625  28.231  0.00  0.00    +0.198 C 
ENDBRANCH  29  41
BRANCH  31  43
ATOM     43  O   UNL     1      -2.617  12.976  23.956  0.00  0.00    -0.390 OA
ATOM     44  H   UNL     1      -3.380  13.475  24.256  0.00  0.00    +0.210 HD
ENDBRANCH  31  43
ENDBRANCH  26  27
BRANCH  26  45
ATOM     45  O   UNL     1      -4.605   8.284  22.127  0.00  0.00    -0.387 OA
ATOM     46  H   UNL     1      -3.709   8.603  21.991  0.00  0.00    +0.210 HD
ENDBRANCH  26  45
ENDBRANCH   1  26
TORSDOF 13
