REMARK VINA RESULT:    -4.524      4.115      7.066
REMARK INTER + INTRA:         -10.827
REMARK INTER:                  -8.518
REMARK INTRA:                  -2.308
REMARK UNBOUND:                -2.997
REMARK  Name = lig_assembled_15.pdb
REMARK  16 active torsions:
REMARK  status: ('A' for Active; 'I' for Inactive)
REMARK    1  A    between atoms: _2  and  _9
REMARK    2  A    between atoms: _4  and  _18
REMARK    3  A    between atoms: _6  and  _7
REMARK    4  A    between atoms: _6  and  _18
REMARK    5  A    between atoms: _14  and  _34
REMARK    6  A    between atoms: _16  and  _22
REMARK    7  A    between atoms: _17  and  _21
REMARK    8  A    between atoms: _21  and  _22
REMARK    9  A    between atoms: _24  and  _25
REMARK   10  A    between atoms: _26  and  _27
REMARK   11  A    between atoms: _28  and  _30
REMARK   12  A    between atoms: _30  and  _31
REMARK   13  A    between atoms: _30  and  _32
REMARK   14  A    between atoms: _32  and  _33
REMARK   15  A    between atoms: _32  and  _34
REMARK   16  A    between atoms: _35  and  _37
REMARK                            x       y       z     vdW  Elec       q    Type
REMARK                         _______ _______ _______ _____ _____    ______ ____
ROOT
ATOM      1  C   UNL     1      -4.277  10.390  28.627  0.00  0.00    +0.163 C 
ENDROOT
BRANCH   1   2
ATOM      2  O   UNL     1      -5.358  11.319  28.816  0.00  0.00    -0.388 OA
ATOM      3  H   UNL     1      -5.036  12.093  29.285  0.00  0.00    +0.210 HD
ENDBRANCH   1   2
BRANCH   1   4
ATOM      4  C   UNL     1      -3.701   9.978  29.978  0.00  0.00    +0.141 C 
BRANCH   4   7
ATOM      5  C   UNL     1      -2.579  11.087  31.880  0.00  0.00    +0.401 C 
ATOM      6  O   UNL     1      -2.903  10.223  32.697  0.00  0.00    -0.226 OA
ATOM      7  N   UNL     1      -2.914  11.056  30.589  0.00  0.00    -0.279 N 
ATOM      8  H   UNL     1      -2.609  11.817  29.999  0.00  0.00    +0.152 HD
BRANCH   5   9
ATOM      9  O   UNL     1      -1.801  12.202  32.321  0.00  0.00    -0.444 OA
BRANCH   9  10
ATOM     10  C   UNL     1      -2.546  12.955  33.281  0.00  0.00    +0.292 C 
BRANCH  10  12
ATOM     11  N   UNL     1      -2.632  15.415  33.024  0.00  0.00    -0.131 NA
ATOM     12  C   UNL     1      -3.087  14.181  32.663  0.00  0.00    +0.121 A 
ATOM     13  C   UNL     1      -4.052  14.325  31.691  0.00  0.00    +0.143 A 
ATOM     14  N   UNL     1      -4.131  15.680  31.468  0.00  0.00    -0.220 N 
ATOM     15  N   UNL     1      -3.274  16.321  32.300  0.00  0.00    -0.060 NA
BRANCH  14  16
ATOM     16  C   UNL     1      -4.927  16.378  30.522  0.00  0.00    +0.067 A 
ATOM     17  C   UNL     1      -5.841  15.696  29.706  0.00  0.00    +0.029 A 
ATOM     18  C   UNL     1      -6.585  16.396  28.751  0.00  0.00    +0.017 A 
ATOM     19  C   UNL     1      -6.422  17.773  28.613  0.00  0.00    +0.018 A 
ATOM     20 BR   UNL     1      -7.413  18.707  27.301  0.00  0.00    -0.050 Br
ATOM     21  C   UNL     1      -5.527  18.463  29.428  0.00  0.00    +0.017 A 
ATOM     22  C   UNL     1      -4.782  17.769  30.385  0.00  0.00    +0.029 A 
ENDBRANCH  14  16
ENDBRANCH  10  12
ENDBRANCH   9  10
ENDBRANCH   5   9
ENDBRANCH   4   7
ENDBRANCH   1   4
BRANCH   1  23
ATOM     23  C   UNL     1      -3.166  11.008  27.761  0.00  0.00    +0.175 C 
BRANCH  23  24
ATOM     24  C   UNL     1      -3.499  10.947  26.263  0.00  0.00    +0.176 C 
ATOM     25  O   UNL     1      -4.572  11.894  26.005  0.00  0.00    -0.332 OA
ATOM     26  C   UNL     1      -4.954  12.051  24.599  0.00  0.00    +0.277 C 
ATOM     27  C   UNL     1      -5.308  10.678  23.978  0.00  0.00    +0.110 C 
ATOM     28  C   UNL     1      -4.211   9.628  24.254  0.00  0.00    +0.143 C 
ATOM     29  C   UNL     1      -3.890   9.550  25.746  0.00  0.00    +0.133 C 
BRANCH  29  30
ATOM     30  N   UNL     1      -2.784   8.610  25.987  0.00  0.00    -0.308 N 
ATOM     31  H   UNL     1      -1.865   8.868  25.655  0.00  0.00    +0.149 HD
ATOM     32  C   UNL     1      -2.914   7.438  26.614  0.00  0.00    +0.210 C 
ATOM     33  C   UNL     1      -4.332   7.062  27.084  0.00  0.00    +0.109 C 
ATOM     34  O   UNL     1      -1.967   6.677  26.815  0.00  0.00    -0.276 OA
ENDBRANCH  29  30
BRANCH  26  35
ATOM     35  C   UNL     1      -3.812  12.703  23.791  0.00  0.00    +0.414 C 
ATOM     36  O   UNL     1      -2.885  13.266  24.372  0.00  0.00    -0.240 OA
ATOM     37  O   UNL     1      -3.818  12.666  22.560  0.00  0.00    -0.240 OA
ENDBRANCH  26  35
BRANCH  28  38
ATOM     38  O   UNL     1      -4.646   8.346  23.798  0.00  0.00    -0.390 OA
ATOM     39  H   UNL     1      -5.235   8.455  23.048  0.00  0.00    +0.210 HD
ENDBRANCH  28  38
BRANCH  26  40
ATOM     40  O   UNL     1      -6.133  12.895  24.545  0.00  0.00    -0.343 OA
ATOM     41  C   UNL     1      -6.062  14.098  25.351  0.00  0.00    +0.198 C 
ENDBRANCH  26  40
ENDBRANCH  23  24
BRANCH  23  42
ATOM     42  O   UNL     1      -1.911  10.346  28.018  0.00  0.00    -0.387 OA
ATOM     43  H   UNL     1      -2.072   9.527  28.492  0.00  0.00    +0.210 HD
ENDBRANCH  23  42
ENDBRANCH   1  23
TORSDOF 14
