REMARK VINA RESULT:    -3.999      6.318     11.409
REMARK INTER + INTRA:         -11.822
REMARK INTER:                  -7.981
REMARK INTRA:                  -3.841
REMARK UNBOUND:                -4.083
REMARK  Name = lig_assembled_83.pdb
REMARK  20 active torsions:
REMARK  status: ('A' for Active; 'I' for Inactive)
REMARK    1  A    between atoms: _2  and  _12
REMARK    2  A    between atoms: _3  and  _14
REMARK    3  A    between atoms: _7  and  _24
REMARK    4  A    between atoms: _9  and  _10
REMARK    5  A    between atoms: _9  and  _24
REMARK    6  A    between atoms: _12  and  _13
REMARK    7  A    between atoms: _13  and  _14
REMARK    8  A    between atoms: _13  and  _18
REMARK    9  A    between atoms: _20  and  _40
REMARK   10  A    between atoms: _22  and  _28
REMARK   11  A    between atoms: _23  and  _27
REMARK   12  A    between atoms: _27  and  _28
REMARK   13  A    between atoms: _30  and  _31
REMARK   14  A    between atoms: _32  and  _33
REMARK   15  A    between atoms: _34  and  _36
REMARK   16  A    between atoms: _36  and  _37
REMARK   17  A    between atoms: _36  and  _38
REMARK   18  A    between atoms: _38  and  _39
REMARK   19  A    between atoms: _38  and  _40
REMARK   20  A    between atoms: _41  and  _43
REMARK                            x       y       z     vdW  Elec       q    Type
REMARK                         _______ _______ _______ _____ _____    ______ ____
ROOT
ATOM      1  C   UNL     1      -2.731  11.971  25.660  0.00  0.00    +0.141 C 
ENDROOT
BRANCH   1   4
ATOM      2  C   UNL     1      -2.206   9.650  26.325  0.00  0.00    +0.401 C 
ATOM      3  O   UNL     1      -0.984   9.822  26.307  0.00  0.00    -0.226 OA
ATOM      4  N   UNL     1      -3.096  10.599  26.031  0.00  0.00    -0.279 N 
ATOM      5  H   UNL     1      -4.077  10.359  26.065  0.00  0.00    +0.152 HD
BRANCH   2   6
ATOM      6  O   UNL     1      -2.721   8.364  26.677  0.00  0.00    -0.444 OA
BRANCH   6   7
ATOM      7  C   UNL     1      -2.346   8.050  28.021  0.00  0.00    +0.292 C 
BRANCH   7   9
ATOM      8  N   UNL     1      -4.646   8.763  28.628  0.00  0.00    -0.131 NA
ATOM      9  C   UNL     1      -3.329   8.599  28.973  0.00  0.00    +0.120 A 
ATOM     10  C   UNL     1      -3.153   9.018  30.272  0.00  0.00    +0.137 A 
ATOM     11  N   UNL     1      -4.397   9.408  30.662  0.00  0.00    -0.249 N 
ATOM     12  N   UNL     1      -5.292   9.267  29.672  0.00  0.00    -0.065 NA
BRANCH  11  13
ATOM     13  C   UNL     1      -4.793   9.957  31.942  0.00  0.00    +0.178 C 
BRANCH  13  14
ATOM     14  C   UNL     1      -5.160  11.440  31.838  0.00  0.00    +0.156 C 
BRANCH  14  15
ATOM     15  O   UNL     1      -6.567  11.578  31.610  0.00  0.00    -0.388 OA
ATOM     16  H   UNL     1      -6.840  11.006  30.864  0.00  0.00    +0.210 HD
ENDBRANCH  14  15
BRANCH  14  17
ATOM     17  C   UNL     1      -4.751  12.187  33.117  0.00  0.00    +0.162 C 
BRANCH  17  18
ATOM     18  N   UNL     1      -4.366  13.566  32.859  0.00  0.00    -0.269 N 
ATOM     19  C   UNL     1      -5.234  14.628  32.973  0.00  0.00    +0.113 A 
ATOM     20  C   UNL     1      -4.488  15.747  32.681  0.00  0.00    +0.137 A 
ATOM     21  N   UNL     1      -3.202  15.403  32.363  0.00  0.00    -0.172 NA
ATOM     22  C   UNL     1      -3.152  14.090  32.484  0.00  0.00    +0.450 A 
ATOM     23  N   UNL     1      -1.943  13.333  32.244  0.00  0.00    +0.120 N 
ATOM     24  O   UNL     1      -1.997  12.101  32.385  0.00  0.00    +0.045 OA
ATOM     25  O   UNL     1      -0.936  13.963  31.901  0.00  0.00    -0.573 OA
ENDBRANCH  17  18
ENDBRANCH  14  17
ENDBRANCH  13  14
ENDBRANCH  11  13
ENDBRANCH   7   9
ENDBRANCH   6   7
ENDBRANCH   2   6
ENDBRANCH   1   4
BRANCH   1  26
ATOM     26  C   UNL     1      -3.193  12.321  24.249  0.00  0.00    +0.163 C 
BRANCH  26  27
ATOM     27  O   UNL     1      -2.624  11.402  23.303  0.00  0.00    -0.388 OA
ATOM     28  H   UNL     1      -3.191  10.631  23.223  0.00  0.00    +0.210 HD
ENDBRANCH  26  27
BRANCH  26  29
ATOM     29  C   UNL     1      -4.730  12.290  24.190  0.00  0.00    +0.175 C 
BRANCH  29  30
ATOM     30  C   UNL     1      -5.370  12.963  25.413  0.00  0.00    +0.176 C 
ATOM     31  O   UNL     1      -6.002  11.927  26.214  0.00  0.00    -0.332 OA
ATOM     32  C   UNL     1      -6.579  12.372  27.486  0.00  0.00    +0.277 C 
ATOM     33  C   UNL     1      -7.575  13.534  27.251  0.00  0.00    +0.110 C 
ATOM     34  C   UNL     1      -6.958  14.646  26.377  0.00  0.00    +0.143 C 
ATOM     35  C   UNL     1      -6.386  14.072  25.081  0.00  0.00    +0.133 C 
BRANCH  35  36
ATOM     36  N   UNL     1      -5.724  15.127  24.298  0.00  0.00    -0.308 N 
ATOM     37  H   UNL     1      -4.935  15.599  24.715  0.00  0.00    +0.149 HD
ATOM     38  C   UNL     1      -6.097  15.500  23.071  0.00  0.00    +0.210 C 
ATOM     39  C   UNL     1      -7.319  14.779  22.472  0.00  0.00    +0.109 C 
ATOM     40  O   UNL     1      -5.515  16.377  22.432  0.00  0.00    -0.276 OA
ENDBRANCH  35  36
BRANCH  32  41
ATOM     41  C   UNL     1      -5.472  12.831  28.457  0.00  0.00    +0.414 C 
ATOM     42  O   UNL     1      -5.701  13.708  29.289  0.00  0.00    -0.240 OA
ATOM     43  O   UNL     1      -4.350  12.325  28.409  0.00  0.00    -0.240 OA
ENDBRANCH  32  41
BRANCH  32  44
ATOM     44  O   UNL     1      -7.305  11.257  28.064  0.00  0.00    -0.343 OA
ATOM     45  C   UNL     1      -8.580  11.601  28.663  0.00  0.00    +0.198 C 
ENDBRANCH  32  44
BRANCH  34  46
ATOM     46  O   UNL     1      -7.954  15.620  26.061  0.00  0.00    -0.390 OA
ATOM     47  H   UNL     1      -8.823  15.269  26.272  0.00  0.00    +0.210 HD
ENDBRANCH  34  46
ENDBRANCH  29  30
BRANCH  29  48
ATOM     48  O   UNL     1      -5.195  10.931  24.071  0.00  0.00    -0.387 OA
ATOM     49  H   UNL     1      -6.139  10.929  23.898  0.00  0.00    +0.210 HD
ENDBRANCH  29  48
ENDBRANCH  26  29
ENDBRANCH   1  26
TORSDOF 18
