REMARK VINA RESULT:    -4.358      2.471      5.609
REMARK INTER + INTRA:         -12.177
REMARK INTER:                  -8.912
REMARK INTRA:                  -3.265
REMARK UNBOUND:                -3.997
REMARK  Name = lig_assembled_68.pdb
REMARK  19 active torsions:
REMARK  status: ('A' for Active; 'I' for Inactive)
REMARK    1  A    between atoms: _2  and  _9
REMARK    2  A    between atoms: _4  and  _21
REMARK    3  A    between atoms: _6  and  _7
REMARK    4  A    between atoms: _6  and  _21
REMARK    5  A    between atoms: _9  and  _10
REMARK    6  A    between atoms: _10  and  _11
REMARK    7  A    between atoms: _10  and  _16
REMARK    8  A    between atoms: _17  and  _37
REMARK    9  A    between atoms: _19  and  _25
REMARK   10  A    between atoms: _20  and  _24
REMARK   11  A    between atoms: _24  and  _25
REMARK   12  A    between atoms: _27  and  _28
REMARK   13  A    between atoms: _29  and  _30
REMARK   14  A    between atoms: _31  and  _33
REMARK   15  A    between atoms: _33  and  _34
REMARK   16  A    between atoms: _33  and  _35
REMARK   17  A    between atoms: _35  and  _36
REMARK   18  A    between atoms: _35  and  _37
REMARK   19  A    between atoms: _38  and  _40
REMARK                            x       y       z     vdW  Elec       q    Type
REMARK                         _______ _______ _______ _____ _____    ______ ____
ROOT
ATOM      1  C   UNL     1      -3.317  11.400  26.357  0.00  0.00    +0.163 C 
ENDROOT
BRANCH   1   2
ATOM      2  O   UNL     1      -3.704  12.004  27.602  0.00  0.00    -0.388 OA
ATOM      3  H   UNL     1      -3.796  11.324  28.273  0.00  0.00    +0.210 HD
ENDBRANCH   1   2
BRANCH   1   4
ATOM      4  C   UNL     1      -3.135  12.465  25.261  0.00  0.00    +0.175 C 
BRANCH   4   5
ATOM      5  C   UNL     1      -4.450  12.772  24.530  0.00  0.00    +0.176 C 
ATOM      6  O   UNL     1      -5.286  13.557  25.424  0.00  0.00    -0.332 OA
ATOM      7  C   UNL     1      -6.549  14.036  24.853  0.00  0.00    +0.277 C 
ATOM      8  C   UNL     1      -7.366  12.853  24.277  0.00  0.00    +0.110 C 
ATOM      9  C   UNL     1      -6.509  11.971  23.345  0.00  0.00    +0.143 C 
ATOM     10  C   UNL     1      -5.219  11.531  24.038  0.00  0.00    +0.133 C 
BRANCH  10  11
ATOM     11  N   UNL     1      -4.372  10.764  23.111  0.00  0.00    -0.308 N 
ATOM     12  H   UNL     1      -3.959  11.256  22.332  0.00  0.00    +0.149 HD
ATOM     13  C   UNL     1      -4.114   9.459  23.233  0.00  0.00    +0.210 C 
ATOM     14  C   UNL     1      -4.780   8.731  24.416  0.00  0.00    +0.109 C 
ATOM     15  O   UNL     1      -3.389   8.845  22.450  0.00  0.00    -0.276 OA
ENDBRANCH  10  11
BRANCH   7  16
ATOM     16  C   UNL     1      -6.288  15.073  23.740  0.00  0.00    +0.414 C 
ATOM     17  O   UNL     1      -7.230  15.590  23.141  0.00  0.00    -0.240 OA
ATOM     18  O   UNL     1      -5.136  15.392  23.442  0.00  0.00    -0.240 OA
ENDBRANCH   7  16
BRANCH   7  19
ATOM     19  O   UNL     1      -7.320  14.648  25.919  0.00  0.00    -0.343 OA
ATOM     20  C   UNL     1      -6.882  14.314  27.261  0.00  0.00    +0.198 C 
ENDBRANCH   7  19
BRANCH   9  21
ATOM     21  O   UNL     1      -7.254  10.814  22.959  0.00  0.00    -0.390 OA
ATOM     22  H   UNL     1      -7.358  10.804  22.005  0.00  0.00    +0.210 HD
ENDBRANCH   9  21
ENDBRANCH   4   5
BRANCH   4  23
ATOM     23  O   UNL     1      -2.130  12.041  24.319  0.00  0.00    -0.387 OA
ATOM     24  H   UNL     1      -2.376  11.190  23.949  0.00  0.00    +0.210 HD
ENDBRANCH   4  23
ENDBRANCH   1   4
BRANCH   1  25
ATOM     25  C   UNL     1      -2.016  10.624  26.535  0.00  0.00    +0.141 C 
BRANCH  25  28
ATOM     26  C   UNL     1      -1.948   8.659  28.031  0.00  0.00    +0.401 C 
ATOM     27  O   UNL     1      -2.035   7.840  27.114  0.00  0.00    -0.226 OA
ATOM     28  N   UNL     1      -1.938   9.981  27.852  0.00  0.00    -0.279 N 
ATOM     29  H   UNL     1      -1.874  10.573  28.668  0.00  0.00    +0.152 HD
BRANCH  26  30
ATOM     30  O   UNL     1      -1.856   8.187  29.378  0.00  0.00    -0.444 OA
BRANCH  30  31
ATOM     31  C   UNL     1      -3.163   8.134  29.956  0.00  0.00    +0.292 C 
BRANCH  31  33
ATOM     32  N   UNL     1      -4.616  10.138  29.821  0.00  0.00    -0.131 NA
ATOM     33  C   UNL     1      -3.578   9.470  30.418  0.00  0.00    +0.120 A 
ATOM     34  C   UNL     1      -3.063  10.250  31.427  0.00  0.00    +0.137 A 
ATOM     35  N   UNL     1      -3.836  11.374  31.401  0.00  0.00    -0.249 N 
ATOM     36  N   UNL     1      -4.761  11.309  30.428  0.00  0.00    -0.065 NA
BRANCH  35  37
ATOM     37  C   UNL     1      -3.683  12.574  32.196  0.00  0.00    +0.181 C 
BRANCH  37  38
ATOM     38  C   UNL     1      -2.907  13.668  31.450  0.00  0.00    +0.166 C 
BRANCH  38  39
ATOM     39  C   UNL     1      -3.510  15.059  31.573  0.00  0.00    -0.017 A 
ATOM     40  C   UNL     1      -4.271  15.567  30.504  0.00  0.00    +0.006 A 
ATOM     41  C   UNL     1      -4.865  16.829  30.586  0.00  0.00    +0.000 A 
ATOM     42  C   UNL     1      -4.713  17.599  31.735  0.00  0.00    +0.000 A 
ATOM     43  C   UNL     1      -3.979  17.106  32.807  0.00  0.00    +0.000 A 
ATOM     44  C   UNL     1      -3.385  15.843  32.730  0.00  0.00    +0.006 A 
ENDBRANCH  38  39
BRANCH  38  45
ATOM     45  O   UNL     1      -2.852  13.333  30.058  0.00  0.00    -0.385 OA
ATOM     46  H   UNL     1      -3.171  12.422  29.952  0.00  0.00    +0.210 HD
ENDBRANCH  38  45
ENDBRANCH  37  38
ENDBRANCH  35  37
ENDBRANCH  31  33
ENDBRANCH  30  31
ENDBRANCH  26  30
ENDBRANCH  25  28
ENDBRANCH   1  25
TORSDOF 17
