REMARK VINA RESULT:    -3.503      4.462     10.690
REMARK INTER + INTRA:         -11.389
REMARK INTER:                  -9.101
REMARK INTRA:                  -2.288
REMARK UNBOUND:                -4.711
REMARK  Name = lig_assembled_62.pdb
REMARK  20 active torsions:
REMARK  status: ('A' for Active; 'I' for Inactive)
REMARK    1  A    between atoms: _2  and  _10
REMARK    2  A    between atoms: _5  and  _19
REMARK    3  A    between atoms: _6  and  _10
REMARK    4  A    between atoms: _7  and  _8
REMARK    5  A    between atoms: _7  and  _19
REMARK    6  A    between atoms: _10  and  _11
REMARK    7  A    between atoms: _11  and  _14
REMARK    8  A    between atoms: _12  and  _14
REMARK    9  A    between atoms: _15  and  _35
REMARK   10  A    between atoms: _17  and  _23
REMARK   11  A    between atoms: _18  and  _22
REMARK   12  A    between atoms: _22  and  _23
REMARK   13  A    between atoms: _25  and  _26
REMARK   14  A    between atoms: _27  and  _28
REMARK   15  A    between atoms: _29  and  _31
REMARK   16  A    between atoms: _31  and  _32
REMARK   17  A    between atoms: _31  and  _33
REMARK   18  A    between atoms: _33  and  _34
REMARK   19  A    between atoms: _33  and  _35
REMARK   20  A    between atoms: _36  and  _38
REMARK                            x       y       z     vdW  Elec       q    Type
REMARK                         _______ _______ _______ _____ _____    ______ ____
ROOT
ATOM      1  C   UNL     1      -4.004  10.919  21.997  0.00  0.00    +0.163 C 
ENDROOT
BRANCH   1   2
ATOM      2  O   UNL     1      -3.942   9.488  21.883  0.00  0.00    -0.388 OA
ATOM      3  H   UNL     1      -3.419   9.132  22.605  0.00  0.00    +0.210 HD
ENDBRANCH   1   2
BRANCH   1   4
ATOM      4  C   UNL     1      -2.945  11.439  22.984  0.00  0.00    +0.175 C 
BRANCH   4   5
ATOM      5  C   UNL     1      -3.256  11.033  24.432  0.00  0.00    +0.176 C 
ATOM      6  O   UNL     1      -3.058   9.597  24.547  0.00  0.00    -0.332 OA
ATOM      7  C   UNL     1      -3.208   9.042  25.895  0.00  0.00    +0.277 C 
ATOM      8  C   UNL     1      -4.585   9.429  26.489  0.00  0.00    +0.110 C 
ATOM      9  C   UNL     1      -4.854  10.943  26.362  0.00  0.00    +0.143 C 
ATOM     10  C   UNL     1      -4.667  11.415  24.920  0.00  0.00    +0.133 C 
BRANCH  10  11
ATOM     11  N   UNL     1      -4.841  12.873  24.827  0.00  0.00    -0.308 N 
ATOM     12  H   UNL     1      -4.144  13.460  25.264  0.00  0.00    +0.149 HD
ATOM     13  C   UNL     1      -5.860  13.471  24.204  0.00  0.00    +0.210 C 
ATOM     14  C   UNL     1      -6.918  12.549  23.570  0.00  0.00    +0.109 C 
ATOM     15  O   UNL     1      -5.972  14.695  24.130  0.00  0.00    -0.276 OA
ENDBRANCH  10  11
BRANCH   7  16
ATOM     16  C   UNL     1      -2.085   9.548  26.823  0.00  0.00    +0.414 C 
ATOM     17  O   UNL     1      -0.953   9.739  26.380  0.00  0.00    -0.240 OA
ATOM     18  O   UNL     1      -2.310   9.765  28.015  0.00  0.00    -0.240 OA
ENDBRANCH   7  16
BRANCH   7  19
ATOM     19  O   UNL     1      -3.144   7.596  25.794  0.00  0.00    -0.343 OA
ATOM     20  C   UNL     1      -4.313   6.971  25.206  0.00  0.00    +0.198 C 
ENDBRANCH   7  19
BRANCH   9  21
ATOM     21  O   UNL     1      -6.189  11.232  26.782  0.00  0.00    -0.390 OA
ATOM     22  H   UNL     1      -6.260  11.107  27.731  0.00  0.00    +0.210 HD
ENDBRANCH   9  21
ENDBRANCH   4   5
BRANCH   4  23
ATOM     23  O   UNL     1      -2.834  12.873  22.883  0.00  0.00    -0.387 OA
ATOM     24  H   UNL     1      -3.165  13.161  22.029  0.00  0.00    +0.210 HD
ENDBRANCH   4  23
ENDBRANCH   1   4
BRANCH   1  25
ATOM     25  C   UNL     1      -3.786  11.561  20.631  0.00  0.00    +0.141 C 
BRANCH  25  28
ATOM     26  C   UNL     1      -5.547  10.629  19.169  0.00  0.00    +0.401 C 
ATOM     27  O   UNL     1      -5.025   9.515  19.093  0.00  0.00    -0.226 OA
ATOM     28  N   UNL     1      -5.033  11.647  19.861  0.00  0.00    -0.279 N 
ATOM     29  H   UNL     1      -5.530  12.527  19.855  0.00  0.00    +0.152 HD
BRANCH  26  30
ATOM     30  O   UNL     1      -6.776  10.870  18.478  0.00  0.00    -0.444 OA
BRANCH  30  31
ATOM     31  C   UNL     1      -6.714  10.282  17.176  0.00  0.00    +0.292 C 
BRANCH  31  33
ATOM     32  N   UNL     1      -5.904  12.416  16.217  0.00  0.00    -0.131 NA
ATOM     33  C   UNL     1      -5.807  11.054  16.306  0.00  0.00    +0.120 A 
ATOM     34  C   UNL     1      -4.784  10.623  15.492  0.00  0.00    +0.138 A 
ATOM     35  N   UNL     1      -4.306  11.767  14.922  0.00  0.00    -0.237 N 
ATOM     36  N   UNL     1      -4.979  12.845  15.369  0.00  0.00    -0.065 NA
BRANCH  35  37
ATOM     37  C   UNL     1      -3.210  11.947  13.985  0.00  0.00    +0.219 C 
BRANCH  37  38
ATOM     38  C   UNL     1      -3.270  13.334  13.363  0.00  0.00    +0.237 C 
ATOM     39  O   UNL     1      -3.799  13.587  12.284  0.00  0.00    -0.274 OA
ATOM     40  N   UNL     1      -2.742  14.351  14.113  0.00  0.00    -0.328 N 
ATOM     41  H   UNL     1      -2.373  14.229  15.047  0.00  0.00    +0.145 HD
ATOM     42  H   UNL     1      -2.776  15.287  13.727  0.00  0.00    +0.145 HD
ENDBRANCH  37  38
BRANCH  37  43
ATOM     43  C   UNL     1      -3.236  10.865  12.909  0.00  0.00    +0.195 C 
BRANCH  43  44
ATOM     44  O   UNL     1      -2.004  10.130  12.944  0.00  0.00    -0.380 OA
ATOM     45  C   UNL     1      -2.163   8.865  13.575  0.00  0.00    +0.194 C 
ENDBRANCH  43  44
ENDBRANCH  37  43
ENDBRANCH  35  37
ENDBRANCH  31  33
ENDBRANCH  30  31
ENDBRANCH  26  30
ENDBRANCH  25  28
ENDBRANCH   1  25
TORSDOF 17
