REMARK VINA RESULT:    -5.545      3.496      5.942
REMARK INTER + INTRA:         -12.264
REMARK INTER:                  -9.230
REMARK INTRA:                  -3.034
REMARK UNBOUND:                -1.695
REMARK  Name = lig_assembled_12.pdb
REMARK  19 active torsions:
REMARK  status: ('A' for Active; 'I' for Inactive)
REMARK    1  A    between atoms: _2  and  _9
REMARK    2  A    between atoms: _4  and  _21
REMARK    3  A    between atoms: _6  and  _7
REMARK    4  A    between atoms: _6  and  _21
REMARK    5  A    between atoms: _9  and  _16
REMARK    6  A    between atoms: _10  and  _11
REMARK    7  A    between atoms: _10  and  _16
REMARK    8  A    between atoms: _17  and  _37
REMARK    9  A    between atoms: _19  and  _25
REMARK   10  A    between atoms: _20  and  _24
REMARK   11  A    between atoms: _24  and  _25
REMARK   12  A    between atoms: _27  and  _28
REMARK   13  A    between atoms: _29  and  _30
REMARK   14  A    between atoms: _31  and  _33
REMARK   15  A    between atoms: _33  and  _34
REMARK   16  A    between atoms: _33  and  _35
REMARK   17  A    between atoms: _35  and  _36
REMARK   18  A    between atoms: _35  and  _37
REMARK   19  A    between atoms: _38  and  _40
REMARK                            x       y       z     vdW  Elec       q    Type
REMARK                         _______ _______ _______ _____ _____    ______ ____
ROOT
ATOM      1  C   UNL     1      -4.901   7.377  23.669  0.00  0.00    +0.163 C 
ENDROOT
BRANCH   1   2
ATOM      2  O   UNL     1      -3.612   6.977  24.163  0.00  0.00    -0.388 OA
ATOM      3  H   UNL     1      -3.680   6.760  25.096  0.00  0.00    +0.210 HD
ENDBRANCH   1   2
BRANCH   1   4
ATOM      4  C   UNL     1      -4.928   8.884  23.359  0.00  0.00    +0.175 C 
BRANCH   4   5
ATOM      5  C   UNL     1      -3.875   9.659  24.165  0.00  0.00    +0.176 C 
ATOM      6  O   UNL     1      -4.236   9.573  25.571  0.00  0.00    -0.332 OA
ATOM      7  C   UNL     1      -3.280  10.170  26.509  0.00  0.00    +0.277 C 
ATOM      8  C   UNL     1      -2.999  11.645  26.130  0.00  0.00    +0.110 C 
ATOM      9  C   UNL     1      -2.642  11.790  24.635  0.00  0.00    +0.143 C 
ATOM     10  C   UNL     1      -3.702  11.132  23.751  0.00  0.00    +0.133 C 
BRANCH  10  11
ATOM     11  N   UNL     1      -3.307  11.201  22.335  0.00  0.00    -0.308 N 
ATOM     12  H   UNL     1      -2.466  10.715  22.056  0.00  0.00    +0.149 HD
ATOM     13  C   UNL     1      -3.987  11.864  21.396  0.00  0.00    +0.210 C 
ATOM     14  C   UNL     1      -5.249  12.616  21.859  0.00  0.00    +0.109 C 
ATOM     15  O   UNL     1      -3.640  11.893  20.215  0.00  0.00    -0.276 OA
ENDBRANCH  10  11
BRANCH   7  16
ATOM     16  C   UNL     1      -1.955   9.379  26.517  0.00  0.00    +0.414 C 
ATOM     17  O   UNL     1      -1.965   8.152  26.425  0.00  0.00    -0.240 OA
ATOM     18  O   UNL     1      -0.877   9.967  26.615  0.00  0.00    -0.240 OA
ENDBRANCH   7  16
BRANCH   9  19
ATOM     19  O   UNL     1      -2.541  13.174  24.297  0.00  0.00    -0.390 OA
ATOM     20  H   UNL     1      -2.951  13.703  24.985  0.00  0.00    +0.210 HD
ENDBRANCH   9  19
BRANCH   7  21
ATOM     21  O   UNL     1      -3.873  10.143  27.833  0.00  0.00    -0.343 OA
ATOM     22  C   UNL     1      -4.489  11.386  28.253  0.00  0.00    +0.198 C 
ENDBRANCH   7  21
ENDBRANCH   4   5
BRANCH   4  23
ATOM     23  O   UNL     1      -6.242   9.420  23.614  0.00  0.00    -0.387 OA
ATOM     24  H   UNL     1      -6.241   9.883  24.456  0.00  0.00    +0.210 HD
ENDBRANCH   4  23
ENDBRANCH   1   4
BRANCH   1  25
ATOM     25  C   UNL     1      -5.243   6.592  22.407  0.00  0.00    +0.141 C 
BRANCH  25  28
ATOM     26  C   UNL     1      -6.078   7.206  20.164  0.00  0.00    +0.401 C 
ATOM     27  O   UNL     1      -5.364   6.394  19.572  0.00  0.00    -0.226 OA
ATOM     28  N   UNL     1      -6.082   7.370  21.488  0.00  0.00    -0.279 N 
ATOM     29  H   UNL     1      -6.696   8.070  21.880  0.00  0.00    +0.152 HD
BRANCH  26  30
ATOM     30  O   UNL     1      -6.961   8.037  19.406  0.00  0.00    -0.444 OA
BRANCH  30  31
ATOM     31  C   UNL     1      -6.870   9.385  19.875  0.00  0.00    +0.292 C 
BRANCH  31  33
ATOM     32  N   UNL     1      -6.739  11.556  18.685  0.00  0.00    -0.131 NA
ATOM     33  C   UNL     1      -6.315  10.259  18.826  0.00  0.00    +0.120 A 
ATOM     34  C   UNL     1      -5.361   9.992  17.872  0.00  0.00    +0.139 A 
ATOM     35  N   UNL     1      -5.269  11.153  17.162  0.00  0.00    -0.226 N 
ATOM     36  N   UNL     1      -6.082  12.099  17.668  0.00  0.00    -0.063 NA
BRANCH  35  37
ATOM     37  C   UNL     1      -4.408  11.459  16.033  0.00  0.00    +0.305 C 
BRANCH  37  38
ATOM     38  O   UNL     1      -4.436  10.370  15.114  0.00  0.00    -0.353 OA
BRANCH  38  39
ATOM     39  C   UNL     1      -3.154  10.124  14.551  0.00  0.00    +0.197 C 
BRANCH  39  40
ATOM     40  C   UNL     1      -2.621   8.864  15.177  0.00  0.00    -0.022 A 
ATOM     41  C   UNL     1      -1.259   8.545  15.088  0.00  0.00    +0.006 A 
ATOM     42  C   UNL     1      -0.771   7.357  15.634  0.00  0.00    +0.000 A 
ATOM     43  C   UNL     1      -1.642   6.472  16.268  0.00  0.00    +0.000 A 
ATOM     44  C   UNL     1      -3.000   6.771  16.353  0.00  0.00    +0.000 A 
ATOM     45  C   UNL     1      -3.489   7.960  15.807  0.00  0.00    +0.006 A 
ENDBRANCH  39  40
ENDBRANCH  38  39
ENDBRANCH  37  38
ENDBRANCH  35  37
ENDBRANCH  31  33
ENDBRANCH  30  31
ENDBRANCH  26  30
ENDBRANCH  25  28
ENDBRANCH   1  25
TORSDOF 17
