REMARK VINA RESULT:    -4.663      2.859      5.012
REMARK INTER + INTRA:         -11.051
REMARK INTER:                  -6.762
REMARK INTRA:                  -4.289
REMARK UNBOUND:                -2.299
REMARK  Name = lig_assembled_32.pdb
REMARK  19 active torsions:
REMARK  status: ('A' for Active; 'I' for Inactive)
REMARK    1  A    between atoms: _2  and  _9
REMARK    2  A    between atoms: _4  and  _17
REMARK    3  A    between atoms: _5  and  _10
REMARK    4  A    between atoms: _5  and  _11
REMARK    5  A    between atoms: _6  and  _7
REMARK    6  A    between atoms: _6  and  _17
REMARK    7  A    between atoms: _9  and  _10
REMARK    8  A    between atoms: _13  and  _33
REMARK    9  A    between atoms: _15  and  _21
REMARK   10  A    between atoms: _16  and  _20
REMARK   11  A    between atoms: _20  and  _21
REMARK   12  A    between atoms: _23  and  _24
REMARK   13  A    between atoms: _25  and  _26
REMARK   14  A    between atoms: _27  and  _29
REMARK   15  A    between atoms: _29  and  _30
REMARK   16  A    between atoms: _29  and  _31
REMARK   17  A    between atoms: _31  and  _32
REMARK   18  A    between atoms: _31  and  _33
REMARK   19  A    between atoms: _34  and  _36
REMARK                            x       y       z     vdW  Elec       q    Type
REMARK                         _______ _______ _______ _____ _____    ______ ____
ROOT
ATOM      1  C   UNL     1      -3.095  11.737  24.625  0.00  0.00    +0.163 C 
ENDROOT
BRANCH   1   2
ATOM      2  O   UNL     1      -2.006  11.625  25.556  0.00  0.00    -0.388 OA
ATOM      3  H   UNL     1      -1.561  10.783  25.429  0.00  0.00    +0.210 HD
ENDBRANCH   1   2
BRANCH   1   4
ATOM      4  C   UNL     1      -4.393  11.169  25.226  0.00  0.00    +0.175 C 
BRANCH   4   5
ATOM      5  C   UNL     1      -4.116  10.102  26.295  0.00  0.00    +0.176 C 
ATOM      6  O   UNL     1      -3.170   9.147  25.739  0.00  0.00    -0.332 OA
ATOM      7  C   UNL     1      -2.704   8.107  26.661  0.00  0.00    +0.277 C 
ATOM      8  C   UNL     1      -3.908   7.352  27.278  0.00  0.00    +0.110 C 
ATOM      9  C   UNL     1      -4.956   8.327  27.854  0.00  0.00    +0.143 C 
ATOM     10  C   UNL     1      -5.368   9.368  26.812  0.00  0.00    +0.133 C 
BRANCH  10  11
ATOM     11  N   UNL     1      -6.301  10.343  27.398  0.00  0.00    -0.308 N 
ATOM     12  H   UNL     1      -5.952  10.951  28.126  0.00  0.00    +0.149 HD
ATOM     13  C   UNL     1      -7.579  10.476  27.032  0.00  0.00    +0.210 C 
ATOM     14  C   UNL     1      -8.087   9.517  25.940  0.00  0.00    +0.109 C 
ATOM     15  O   UNL     1      -8.333  11.312  27.531  0.00  0.00    -0.276 OA
ENDBRANCH  10  11
BRANCH   7  16
ATOM     16  C   UNL     1      -1.846   8.718  27.788  0.00  0.00    +0.414 C 
ATOM     17  O   UNL     1      -1.982   8.334  28.949  0.00  0.00    -0.240 OA
ATOM     18  O   UNL     1      -1.019   9.595  27.536  0.00  0.00    -0.240 OA
ENDBRANCH   7  16
BRANCH   7  19
ATOM     19  O   UNL     1      -1.910   7.158  25.903  0.00  0.00    -0.343 OA
ATOM     20  C   UNL     1      -1.803   5.839  26.494  0.00  0.00    +0.198 C 
ENDBRANCH   7  19
BRANCH   9  21
ATOM     21  O   UNL     1      -6.111   7.600  28.273  0.00  0.00    -0.390 OA
ATOM     22  H   UNL     1      -6.052   6.694  27.959  0.00  0.00    +0.210 HD
ENDBRANCH   9  21
ENDBRANCH   4   5
BRANCH   4  23
ATOM     23  O   UNL     1      -5.226  10.624  24.183  0.00  0.00    -0.387 OA
ATOM     24  H   UNL     1      -5.626   9.806  24.488  0.00  0.00    +0.210 HD
ENDBRANCH   4  23
ENDBRANCH   1   4
BRANCH   1  25
ATOM     25  C   UNL     1      -3.307  13.198  24.243  0.00  0.00    +0.141 C 
BRANCH  25  28
ATOM     26  C   UNL     1      -5.207  13.823  22.792  0.00  0.00    +0.401 C 
ATOM     27  O   UNL     1      -5.917  14.204  23.726  0.00  0.00    -0.226 OA
ATOM     28  N   UNL     1      -3.976  13.332  22.943  0.00  0.00    -0.279 N 
ATOM     29  H   UNL     1      -3.475  13.037  22.117  0.00  0.00    +0.152 HD
BRANCH  26  30
ATOM     30  O   UNL     1      -5.715  13.898  21.458  0.00  0.00    -0.444 OA
BRANCH  30  31
ATOM     31  C   UNL     1      -7.012  13.297  21.406  0.00  0.00    +0.292 C 
BRANCH  31  33
ATOM     32  N   UNL     1      -7.654  11.105  22.359  0.00  0.00    -0.131 NA
ATOM     33  C   UNL     1      -6.900  11.828  21.472  0.00  0.00    +0.120 A 
ATOM     34  C   UNL     1      -6.106  10.966  20.748  0.00  0.00    +0.137 A 
ATOM     35  N   UNL     1      -6.415   9.739  21.251  0.00  0.00    -0.251 N 
ATOM     36  N   UNL     1      -7.346   9.824  22.216  0.00  0.00    -0.065 NA
BRANCH  35  37
ATOM     37  C   UNL     1      -5.880   8.453  20.866  0.00  0.00    +0.156 C 
BRANCH  37  38
ATOM     38  C   UNL     1      -5.685   7.534  22.065  0.00  0.00    +0.143 C 
BRANCH  38  39
ATOM     39  C   UNL     1      -4.355   7.798  22.709  0.00  0.00    +0.306 C 
ATOM     40  O   UNL     1      -3.550   8.634  22.330  0.00  0.00    -0.251 OA
BRANCH  39  41
ATOM     41  O   UNL     1      -4.119   6.992  23.768  0.00  0.00    -0.481 OA
ATOM     42  H   UNL     1      -3.197   6.674  23.834  0.00  0.00    +0.295 HD
ENDBRANCH  39  41
ENDBRANCH  38  39
ENDBRANCH  37  38
ENDBRANCH  35  37
ENDBRANCH  31  33
ENDBRANCH  30  31
ENDBRANCH  26  30
ENDBRANCH  25  28
ENDBRANCH   1  25
TORSDOF 17
