REMARK VINA RESULT:    -4.757      3.757     11.495
REMARK INTER + INTRA:         -11.591
REMARK INTER:                  -8.828
REMARK INTRA:                  -2.763
REMARK UNBOUND:                -3.358
REMARK  Name = lig_assembled_42.pdb
REMARK  16 active torsions:
REMARK  status: ('A' for Active; 'I' for Inactive)
REMARK    1  A    between atoms: _2  and  _9
REMARK    2  A    between atoms: _4  and  _21
REMARK    3  A    between atoms: _6  and  _7
REMARK    4  A    between atoms: _6  and  _21
REMARK    5  A    between atoms: _17  and  _37
REMARK    6  A    between atoms: _19  and  _25
REMARK    7  A    between atoms: _20  and  _24
REMARK    8  A    between atoms: _24  and  _25
REMARK    9  A    between atoms: _27  and  _28
REMARK   10  A    between atoms: _29  and  _30
REMARK   11  A    between atoms: _31  and  _33
REMARK   12  A    between atoms: _33  and  _34
REMARK   13  A    between atoms: _33  and  _35
REMARK   14  A    between atoms: _35  and  _36
REMARK   15  A    between atoms: _35  and  _37
REMARK   16  A    between atoms: _38  and  _40
REMARK                            x       y       z     vdW  Elec       q    Type
REMARK                         _______ _______ _______ _____ _____    ______ ____
ROOT
ATOM      1  C   UNL     1      -2.988  11.659  24.501  0.00  0.00    +0.163 C 
ENDROOT
BRANCH   1   2
ATOM      2  O   UNL     1      -2.014  11.552  25.552  0.00  0.00    -0.388 OA
ATOM      3  H   UNL     1      -2.245  10.822  26.131  0.00  0.00    +0.210 HD
ENDBRANCH   1   2
BRANCH   1   4
ATOM      4  C   UNL     1      -3.392  13.117  24.310  0.00  0.00    +0.141 C 
BRANCH   4   7
ATOM      5  C   UNL     1      -4.383  13.561  22.091  0.00  0.00    +0.401 C 
ATOM      6  O   UNL     1      -3.298  13.773  21.544  0.00  0.00    -0.226 OA
ATOM      7  N   UNL     1      -4.521  13.255  23.381  0.00  0.00    -0.279 N 
ATOM      8  H   UNL     1      -5.454  13.109  23.740  0.00  0.00    +0.152 HD
BRANCH   5   9
ATOM      9  O   UNL     1      -5.581  13.650  21.314  0.00  0.00    -0.444 OA
BRANCH   9  10
ATOM     10  C   UNL     1      -6.263  12.393  21.344  0.00  0.00    +0.292 C 
BRANCH  10  12
ATOM     11  N   UNL     1      -5.267  10.210  20.713  0.00  0.00    -0.131 NA
ATOM     12  C   UNL     1      -5.677  11.462  20.361  0.00  0.00    +0.121 A 
ATOM     13  C   UNL     1      -5.445  11.648  19.019  0.00  0.00    +0.143 A 
ATOM     14  N   UNL     1      -4.887  10.470  18.584  0.00  0.00    -0.220 N 
ATOM     15  N   UNL     1      -4.787   9.611  19.629  0.00  0.00    -0.060 NA
BRANCH  14  16
ATOM     16  C   UNL     1      -4.455  10.132  17.277  0.00  0.00    +0.071 A 
ATOM     17  C   UNL     1      -3.916  11.120  16.438  0.00  0.00    +0.077 A 
ATOM     18  C   UNL     1      -3.510  10.742  15.177  0.00  0.00    +0.168 A 
ATOM     19  O   UNL     1      -2.967  11.571  14.248  0.00  0.00    -0.453 OA
ATOM     20  C   UNL     1      -2.740  10.649  13.163  0.00  0.00    +0.466 C 
ATOM     21  O   UNL     1      -3.158   9.299  13.462  0.00  0.00    -0.453 OA
ATOM     22  C   UNL     1      -3.619   9.447  14.732  0.00  0.00    +0.166 A 
ATOM     23  C   UNL     1      -4.145   8.451  15.527  0.00  0.00    +0.051 A 
ATOM     24  C   UNL     1      -4.568   8.798  16.817  0.00  0.00    +0.031 A 
ENDBRANCH  14  16
ENDBRANCH  10  12
ENDBRANCH   9  10
ENDBRANCH   5   9
ENDBRANCH   4   7
ENDBRANCH   1   4
BRANCH   1  25
ATOM     25  C   UNL     1      -4.235  10.817  24.819  0.00  0.00    +0.175 C 
BRANCH  25  26
ATOM     26  C   UNL     1      -4.008   9.875  26.011  0.00  0.00    +0.176 C 
ATOM     27  O   UNL     1      -3.000   8.901  25.625  0.00  0.00    -0.332 OA
ATOM     28  C   UNL     1      -2.575   7.977  26.681  0.00  0.00    +0.277 C 
ATOM     29  C   UNL     1      -3.799   7.251  27.290  0.00  0.00    +0.110 C 
ATOM     30  C   UNL     1      -4.911   8.244  27.687  0.00  0.00    +0.143 C 
ATOM     31  C   UNL     1      -5.274   9.158  26.516  0.00  0.00    +0.133 C 
BRANCH  31  32
ATOM     32  N   UNL     1      -6.272  10.156  26.932  0.00  0.00    -0.308 N 
ATOM     33  H   UNL     1      -6.020  10.794  27.674  0.00  0.00    +0.149 HD
ATOM     34  C   UNL     1      -7.488  10.275  26.392  0.00  0.00    +0.210 C 
ATOM     35  C   UNL     1      -7.850   9.272  25.280  0.00  0.00    +0.109 C 
ATOM     36  O   UNL     1      -8.298  11.131  26.750  0.00  0.00    -0.276 OA
ENDBRANCH  31  32
BRANCH  28  37
ATOM     37  C   UNL     1      -1.816   8.730  27.794  0.00  0.00    +0.414 C 
ATOM     38  O   UNL     1      -1.025   9.628  27.507  0.00  0.00    -0.240 OA
ATOM     39  O   UNL     1      -1.994   8.439  28.977  0.00  0.00    -0.240 OA
ENDBRANCH  28  37
BRANCH  30  40
ATOM     40  O   UNL     1      -6.074   7.525  28.101  0.00  0.00    -0.390 OA
ATOM     41  H   UNL     1      -6.692   7.467  27.369  0.00  0.00    +0.210 HD
ENDBRANCH  30  40
BRANCH  28  42
ATOM     42  O   UNL     1      -1.704   6.982  26.083  0.00  0.00    -0.343 OA
ATOM     43  C   UNL     1      -2.150   5.610  26.230  0.00  0.00    +0.198 C 
ENDBRANCH  28  42
ENDBRANCH  25  26
BRANCH  25  44
ATOM     44  O   UNL     1      -4.634  10.061  23.658  0.00  0.00    -0.387 OA
ATOM     45  H   UNL     1      -4.985  10.658  22.993  0.00  0.00    +0.210 HD
ENDBRANCH  25  44
ENDBRANCH   1  25
TORSDOF 14
