REMARK VINA RESULT:    -4.727      2.500      6.333
REMARK INTER + INTRA:         -11.360
REMARK INTER:                  -7.821
REMARK INTRA:                  -3.540
REMARK UNBOUND:                -2.903
REMARK  Name = lig_assembled_69.pdb
REMARK  18 active torsions:
REMARK  status: ('A' for Active; 'I' for Inactive)
REMARK    1  A    between atoms: _2  and  _9
REMARK    2  A    between atoms: _4  and  _21
REMARK    3  A    between atoms: _6  and  _7
REMARK    4  A    between atoms: _6  and  _21
REMARK    5  A    between atoms: _11  and  _16
REMARK    6  A    between atoms: _14  and  _15
REMARK    7  A    between atoms: _17  and  _37
REMARK    8  A    between atoms: _19  and  _25
REMARK    9  A    between atoms: _20  and  _24
REMARK   10  A    between atoms: _24  and  _25
REMARK   11  A    between atoms: _27  and  _28
REMARK   12  A    between atoms: _29  and  _30
REMARK   13  A    between atoms: _31  and  _33
REMARK   14  A    between atoms: _33  and  _34
REMARK   15  A    between atoms: _33  and  _35
REMARK   16  A    between atoms: _35  and  _36
REMARK   17  A    between atoms: _35  and  _37
REMARK   18  A    between atoms: _38  and  _40
REMARK                            x       y       z     vdW  Elec       q    Type
REMARK                         _______ _______ _______ _____ _____    ______ ____
ROOT
ATOM      1  C   UNL     1      -4.086  12.987  29.886  0.00  0.00    +0.163 C 
ENDROOT
BRANCH   1   2
ATOM      2  O   UNL     1      -2.814  12.759  30.515  0.00  0.00    -0.388 OA
ATOM      3  H   UNL     1      -2.140  13.280  30.071  0.00  0.00    +0.210 HD
ENDBRANCH   1   2
BRANCH   1   4
ATOM      4  C   UNL     1      -4.741  11.658  29.472  0.00  0.00    +0.175 C 
BRANCH   4   5
ATOM      5  C   UNL     1      -3.733  10.690  28.837  0.00  0.00    +0.176 C 
ATOM      6  O   UNL     1      -4.230  10.327  27.519  0.00  0.00    -0.332 OA
ATOM      7  C   UNL     1      -3.340   9.485  26.715  0.00  0.00    +0.277 C 
ATOM      8  C   UNL     1      -2.951   8.207  27.498  0.00  0.00    +0.110 C 
ATOM      9  C   UNL     1      -2.445   8.540  28.917  0.00  0.00    +0.143 C 
ATOM     10  C   UNL     1      -3.447   9.422  29.663  0.00  0.00    +0.133 C 
BRANCH  10  11
ATOM     11  N   UNL     1      -2.915   9.805  30.981  0.00  0.00    -0.308 N 
ATOM     12  H   UNL     1      -2.066  10.351  31.006  0.00  0.00    +0.149 HD
ATOM     13  C   UNL     1      -3.482   9.476  32.145  0.00  0.00    +0.210 C 
ATOM     14  C   UNL     1      -4.760   8.621  32.073  0.00  0.00    +0.109 C 
ATOM     15  O   UNL     1      -3.022   9.823  33.234  0.00  0.00    -0.276 OA
ENDBRANCH  10  11
BRANCH   7  16
ATOM     16  C   UNL     1      -2.063  10.257  26.322  0.00  0.00    +0.414 C 
ATOM     17  O   UNL     1      -0.955   9.746  26.480  0.00  0.00    -0.240 OA
ATOM     18  O   UNL     1      -2.141  11.391  25.848  0.00  0.00    -0.240 OA
ENDBRANCH   7  16
BRANCH   7  19
ATOM     19  O   UNL     1      -4.058   9.087  25.518  0.00  0.00    -0.343 OA
ATOM     20  C   UNL     1      -5.338   8.450  25.756  0.00  0.00    +0.198 C 
ENDBRANCH   7  19
BRANCH   9  21
ATOM     21  O   UNL     1      -2.243   7.333  29.653  0.00  0.00    -0.390 OA
ATOM     22  H   UNL     1      -1.362   6.993  29.476  0.00  0.00    +0.210 HD
ENDBRANCH   9  21
ENDBRANCH   4   5
BRANCH   4  23
ATOM     23  O   UNL     1      -5.834  11.904  28.564  0.00  0.00    -0.387 OA
ATOM     24  H   UNL     1      -5.626  12.661  28.011  0.00  0.00    +0.210 HD
ENDBRANCH   4  23
ENDBRANCH   1   4
BRANCH   1  25
ATOM     25  C   UNL     1      -5.012  13.737  30.838  0.00  0.00    +0.141 C 
BRANCH  25  28
ATOM     26  C   UNL     1      -5.750  15.910  29.923  0.00  0.00    +0.401 C 
ATOM     27  O   UNL     1      -4.764  16.525  30.335  0.00  0.00    -0.226 OA
ATOM     28  N   UNL     1      -5.951  14.606  30.118  0.00  0.00    -0.279 N 
ATOM     29  H   UNL     1      -6.796  14.193  29.749  0.00  0.00    +0.152 HD
BRANCH  26  30
ATOM     30  O   UNL     1      -6.755  16.618  29.192  0.00  0.00    -0.444 OA
BRANCH  30  31
ATOM     31  C   UNL     1      -7.851  15.741  28.914  0.00  0.00    +0.292 C 
BRANCH  31  33
ATOM     32  N   UNL     1      -7.799  13.694  27.531  0.00  0.00    -0.131 NA
ATOM     33  C   UNL     1      -7.642  15.050  27.629  0.00  0.00    +0.120 A 
ATOM     34  C   UNL     1      -7.280  15.551  26.398  0.00  0.00    +0.137 A 
ATOM     35  N   UNL     1      -7.220  14.448  25.599  0.00  0.00    -0.248 N 
ATOM     36  N   UNL     1      -7.533  13.335  26.285  0.00  0.00    -0.065 NA
BRANCH  35  37
ATOM     37  C   UNL     1      -6.824  14.374  24.194  0.00  0.00    +0.114 C 
ATOM     38  C   UNL     1      -6.180  13.022  23.861  0.00  0.00    +0.062 C 
ATOM     39  C   UNL     1      -4.685  12.893  24.157  0.00  0.00    +0.139 C 
ATOM     40  C   UNL     1      -3.757  13.675  23.271  0.00  0.00    +0.002 C 
ATOM     41  C   UNL     1      -4.025  14.754  22.518  0.00  0.00    +0.002 C 
ATOM     42  C   UNL     1      -5.292  15.552  22.478  0.00  0.00    +0.139 C 
ATOM     43  C   UNL     1      -6.032  15.632  23.808  0.00  0.00    +0.062 C 
BRANCH  39  44
ATOM     44  O   UNL     1      -4.336  11.518  23.958  0.00  0.00    -0.388 OA
ATOM     45  H   UNL     1      -3.426  11.496  23.617  0.00  0.00    +0.210 HD
ENDBRANCH  39  44
BRANCH  42  46
ATOM     46  O   UNL     1      -6.143  15.034  21.467  0.00  0.00    -0.388 OA
ATOM     47  H   UNL     1      -6.134  14.065  21.549  0.00  0.00    +0.210 HD
ENDBRANCH  42  46
ENDBRANCH  35  37
ENDBRANCH  31  33
ENDBRANCH  30  31
ENDBRANCH  26  30
ENDBRANCH  25  28
ENDBRANCH   1  25
TORSDOF 16
