REMARK VINA RESULT:    -4.664      2.241      6.278
REMARK INTER + INTRA:         -12.277
REMARK INTER:                  -8.362
REMARK INTRA:                  -3.915
REMARK UNBOUND:                -3.114
REMARK  Name = lig_assembled_10.pdb
REMARK  21 active torsions:
REMARK  status: ('A' for Active; 'I' for Inactive)
REMARK    1  A    between atoms: _2  and  _9
REMARK    2  A    between atoms: _4  and  _20
REMARK    3  A    between atoms: _5  and  _9
REMARK    4  A    between atoms: _5  and  _12
REMARK    5  A    between atoms: _6  and  _7
REMARK    6  A    between atoms: _6  and  _20
REMARK    7  A    between atoms: _9  and  _10
REMARK    8  A    between atoms: _10  and  _11
REMARK    9  A    between atoms: _11  and  _14
REMARK   10  A    between atoms: _16  and  _36
REMARK   11  A    between atoms: _18  and  _24
REMARK   12  A    between atoms: _19  and  _23
REMARK   13  A    between atoms: _23  and  _24
REMARK   14  A    between atoms: _26  and  _27
REMARK   15  A    between atoms: _28  and  _29
REMARK   16  A    between atoms: _30  and  _32
REMARK   17  A    between atoms: _32  and  _33
REMARK   18  A    between atoms: _32  and  _34
REMARK   19  A    between atoms: _34  and  _35
REMARK   20  A    between atoms: _34  and  _36
REMARK   21  A    between atoms: _37  and  _39
REMARK                            x       y       z     vdW  Elec       q    Type
REMARK                         _______ _______ _______ _____ _____    ______ ____
ROOT
ATOM      1  C   UNL     1      -3.191  10.340  31.135  0.00  0.00    +0.163 C 
ENDROOT
BRANCH   1   2
ATOM      2  O   UNL     1      -2.129  11.207  31.566  0.00  0.00    -0.388 OA
ATOM      3  H   UNL     1      -1.817  10.928  32.430  0.00  0.00    +0.210 HD
ENDBRANCH   1   2
BRANCH   1   4
ATOM      4  C   UNL     1      -4.078  11.035  30.088  0.00  0.00    +0.175 C 
BRANCH   4   5
ATOM      5  C   UNL     1      -4.259  12.531  30.384  0.00  0.00    +0.176 C 
ATOM      6  O   UNL     1      -4.407  12.686  31.823  0.00  0.00    -0.332 OA
ATOM      7  C   UNL     1      -4.487  14.068  32.306  0.00  0.00    +0.277 C 
ATOM      8  C   UNL     1      -5.619  14.832  31.577  0.00  0.00    +0.110 C 
ATOM      9  C   UNL     1      -5.522  14.670  30.045  0.00  0.00    +0.143 C 
ATOM     10  C   UNL     1      -5.442  13.194  29.654  0.00  0.00    +0.133 C 
BRANCH  10  11
ATOM     11  N   UNL     1      -5.262  13.055  28.200  0.00  0.00    -0.308 N 
ATOM     12  H   UNL     1      -4.370  13.323  27.808  0.00  0.00    +0.149 HD
ATOM     13  C   UNL     1      -6.200  12.599  27.366  0.00  0.00    +0.210 C 
ATOM     14  C   UNL     1      -7.557  12.224  27.992  0.00  0.00    +0.109 C 
ATOM     15  O   UNL     1      -6.016  12.479  26.154  0.00  0.00    -0.276 OA
ENDBRANCH  10  11
BRANCH   7  16
ATOM     16  C   UNL     1      -3.147  14.801  32.088  0.00  0.00    +0.414 C 
ATOM     17  O   UNL     1      -2.102  14.162  31.972  0.00  0.00    -0.240 OA
ATOM     18  O   UNL     1      -3.111  16.031  32.027  0.00  0.00    -0.240 OA
ENDBRANCH   7  16
BRANCH   7  19
ATOM     19  O   UNL     1      -4.798  14.031  33.722  0.00  0.00    -0.343 OA
ATOM     20  C   UNL     1      -5.968  13.249  34.072  0.00  0.00    +0.198 C 
ENDBRANCH   7  19
BRANCH   9  21
ATOM     21  O   UNL     1      -6.665  15.260  29.425  0.00  0.00    -0.390 OA
ATOM     22  H   UNL     1      -6.904  16.064  29.891  0.00  0.00    +0.210 HD
ENDBRANCH   9  21
ENDBRANCH   4   5
BRANCH   4  23
ATOM     23  O   UNL     1      -5.362  10.384  30.014  0.00  0.00    -0.387 OA
ATOM     24  H   UNL     1      -5.269   9.543  29.560  0.00  0.00    +0.210 HD
ENDBRANCH   4  23
ENDBRANCH   1   4
BRANCH   1  25
ATOM     25  C   UNL     1      -2.611   9.060  30.543  0.00  0.00    +0.141 C 
BRANCH  25  28
ATOM     26  C   UNL     1      -2.359   8.041  28.306  0.00  0.00    +0.401 C 
ATOM     27  O   UNL     1      -1.443   7.289  28.649  0.00  0.00    -0.226 OA
ATOM     28  N   UNL     1      -2.958   8.906  29.125  0.00  0.00    -0.279 N 
ATOM     29  H   UNL     1      -3.693   9.488  28.749  0.00  0.00    +0.152 HD
BRANCH  26  30
ATOM     30  O   UNL     1      -2.818   8.004  26.953  0.00  0.00    -0.444 OA
BRANCH  30  31
ATOM     31  C   UNL     1      -3.927   8.894  26.800  0.00  0.00    +0.292 C 
BRANCH  31  33
ATOM     32  N   UNL     1      -2.899  11.137  26.579  0.00  0.00    -0.131 NA
ATOM     33  C   UNL     1      -3.532  10.070  26.002  0.00  0.00    +0.120 A 
ATOM     34  C   UNL     1      -3.689  10.313  24.656  0.00  0.00    +0.138 A 
ATOM     35  N   UNL     1      -3.095  11.523  24.464  0.00  0.00    -0.237 N 
ATOM     36  N   UNL     1      -2.643  12.025  25.631  0.00  0.00    -0.065 NA
BRANCH  35  37
ATOM     37  C   UNL     1      -2.889  12.303  23.254  0.00  0.00    +0.227 C 
BRANCH  37  38
ATOM     38  C   UNL     1      -3.577  13.651  23.249  0.00  0.00    +0.330 C 
ATOM     39  O   UNL     1      -3.336  14.494  22.393  0.00  0.00    -0.249 OA
BRANCH  38  40
ATOM     40  O   UNL     1      -4.505  13.878  24.202  0.00  0.00    -0.479 OA
ATOM     41  H   UNL     1      -4.234  13.700  25.140  0.00  0.00    +0.295 HD
ENDBRANCH  38  40
ENDBRANCH  37  38
BRANCH  37  42
ATOM     42  C   UNL     1      -3.126  11.523  21.954  0.00  0.00    +0.158 C 
BRANCH  42  43
ATOM     43  C   UNL     1      -4.498  11.766  21.390  0.00  0.00    +0.307 C 
ATOM     44  O   UNL     1      -5.530  11.381  21.925  0.00  0.00    -0.251 OA
BRANCH  43  45
ATOM     45  O   UNL     1      -4.498  12.521  20.275  0.00  0.00    -0.481 OA
ATOM     46  H   UNL     1      -4.190  12.068  19.466  0.00  0.00    +0.295 HD
ENDBRANCH  43  45
ENDBRANCH  42  43
ENDBRANCH  37  42
ENDBRANCH  35  37
ENDBRANCH  31  33
ENDBRANCH  30  31
ENDBRANCH  26  30
ENDBRANCH  25  28
ENDBRANCH   1  25
TORSDOF 19
