REMARK VINA RESULT:    -4.649      3.687      5.720
REMARK INTER + INTRA:         -10.108
REMARK INTER:                  -8.209
REMARK INTRA:                  -1.900
REMARK UNBOUND:                -2.334
REMARK  Name = lig_assembled_65.pdb
REMARK  16 active torsions:
REMARK  status: ('A' for Active; 'I' for Inactive)
REMARK    1  A    between atoms: _8  and  _20
REMARK    2  A    between atoms: _9  and  _15
REMARK    3  A    between atoms: _10  and  _11
REMARK    4  A    between atoms: _10  and  _20
REMARK    5  A    between atoms: _16  and  _36
REMARK    6  A    between atoms: _18  and  _24
REMARK    7  A    between atoms: _19  and  _23
REMARK    8  A    between atoms: _23  and  _24
REMARK    9  A    between atoms: _26  and  _27
REMARK   10  A    between atoms: _28  and  _29
REMARK   11  A    between atoms: _30  and  _32
REMARK   12  A    between atoms: _32  and  _33
REMARK   13  A    between atoms: _32  and  _34
REMARK   14  A    between atoms: _34  and  _35
REMARK   15  A    between atoms: _34  and  _36
REMARK   16  A    between atoms: _37  and  _39
REMARK                            x       y       z     vdW  Elec       q    Type
REMARK                         _______ _______ _______ _____ _____    ______ ____
ROOT
ATOM      1  C   UNL     1      -5.949  10.961  16.088  0.00  0.00    +0.163 C 
ENDROOT
BRANCH   1   2
ATOM      2  O   UNL     1      -5.104  12.080  15.773  0.00  0.00    -0.388 OA
ATOM      3  H   UNL     1      -5.648  12.834  15.531  0.00  0.00    +0.210 HD
ENDBRANCH   1   2
BRANCH   1   4
ATOM      4  C   UNL     1      -6.474  11.087  17.514  0.00  0.00    +0.141 C 
BRANCH   4   7
ATOM      5  C   UNL     1      -4.736  11.096  19.271  0.00  0.00    +0.401 C 
ATOM      6  O   UNL     1      -4.766   9.874  19.437  0.00  0.00    -0.226 OA
ATOM      7  N   UNL     1      -5.505  11.748  18.398  0.00  0.00    -0.279 N 
ATOM      8  H   UNL     1      -5.415  12.752  18.340  0.00  0.00    +0.152 HD
BRANCH   5   9
ATOM      9  O   UNL     1      -3.835  11.882  20.054  0.00  0.00    -0.444 OA
BRANCH   9  10
ATOM     10  C   UNL     1      -4.522  12.404  21.194  0.00  0.00    +0.292 C 
BRANCH  10  12
ATOM     11  N   UNL     1      -3.284  10.617  22.379  0.00  0.00    -0.131 NA
ATOM     12  C   UNL     1      -4.042  11.755  22.428  0.00  0.00    +0.121 A 
ATOM     13  C   UNL     1      -4.230  12.112  23.742  0.00  0.00    +0.149 A 
ATOM     14  N   UNL     1      -3.569  11.146  24.471  0.00  0.00    -0.155 N 
ATOM     15  C   UNL     1      -3.478  11.052  25.891  0.00  0.00    +0.416 C 
ATOM     16  N   UNL     1      -2.785  10.038  26.422  0.00  0.00    +0.041 NA
ATOM     17  C   UNL     1      -2.760  10.008  27.753  0.00  0.00    +0.339 C 
ATOM     18  C   UNL     1      -2.012   8.889  28.407  0.00  0.00    +0.149 C 
ATOM     19  N   UNL     1      -3.363  10.898  28.541  0.00  0.00    +0.007 NA
ATOM     20  C   UNL     1      -4.033  11.853  27.915  0.00  0.00    +0.386 C 
ATOM     21  N   UNL     1      -4.682  12.788  28.693  0.00  0.00    -0.296 N 
ATOM     22  H   UNL     1      -4.272  12.831  29.616  0.00  0.00    +0.148 HD
ATOM     23  H   UNL     1      -4.805  13.658  28.196  0.00  0.00    +0.148 HD
ATOM     24  N   UNL     1      -4.110  11.996  26.604  0.00  0.00    -0.290 NA
ATOM     25  N   UNL     1      -2.997  10.254  23.624  0.00  0.00    -0.055 NA
ENDBRANCH  10  12
ENDBRANCH   9  10
ENDBRANCH   5   9
ENDBRANCH   4   7
ENDBRANCH   1   4
BRANCH   1  26
ATOM     26  C   UNL     1      -5.182   9.635  15.938  0.00  0.00    +0.175 C 
BRANCH  26  27
ATOM     27  C   UNL     1      -4.111   9.707  14.840  0.00  0.00    +0.176 C 
ATOM     28  O   UNL     1      -4.721  10.295  13.658  0.00  0.00    -0.332 OA
ATOM     29  C   UNL     1      -3.815  10.541  12.533  0.00  0.00    +0.277 C 
ATOM     30  C   UNL     1      -3.068   9.241  12.145  0.00  0.00    +0.110 C 
ATOM     31  C   UNL     1      -2.429   8.563  13.375  0.00  0.00    +0.143 C 
ATOM     32  C   UNL     1      -3.460   8.357  14.485  0.00  0.00    +0.133 C 
BRANCH  32  33
ATOM     33  N   UNL     1      -2.821   7.790  15.683  0.00  0.00    -0.308 N 
ATOM     34  H   UNL     1      -2.118   8.346  16.151  0.00  0.00    +0.149 HD
ATOM     35  C   UNL     1      -3.108   6.590  16.193  0.00  0.00    +0.210 C 
ATOM     36  C   UNL     1      -4.165   5.757  15.443  0.00  0.00    +0.109 C 
ATOM     37  O   UNL     1      -2.567   6.146  17.207  0.00  0.00    -0.276 OA
ENDBRANCH  32  33
BRANCH  29  38
ATOM     38  C   UNL     1      -2.790  11.639  12.886  0.00  0.00    +0.414 C 
ATOM     39  O   UNL     1      -3.041  12.462  13.766  0.00  0.00    -0.240 OA
ATOM     40  O   UNL     1      -1.712  11.701  12.293  0.00  0.00    -0.240 OA
ENDBRANCH  29  38
BRANCH  29  41
ATOM     41  O   UNL     1      -4.613  10.966  11.398  0.00  0.00    -0.343 OA
ATOM     42  C   UNL     1      -5.747  11.807  11.728  0.00  0.00    +0.198 C 
ENDBRANCH  29  41
BRANCH  31  43
ATOM     43  O   UNL     1      -1.884   7.298  12.998  0.00  0.00    -0.390 OA
ATOM     44  H   UNL     1      -1.347   6.954  13.716  0.00  0.00    +0.210 HD
ENDBRANCH  31  43
ENDBRANCH  26  27
BRANCH  26  45
ATOM     45  O   UNL     1      -6.101   8.558  15.666  0.00  0.00    -0.387 OA
ATOM     46  H   UNL     1      -6.461   8.227  16.492  0.00  0.00    +0.210 HD
ENDBRANCH  26  45
ENDBRANCH   1  26
TORSDOF 13
