REMARK VINA RESULT:    -4.032      2.257      3.671
REMARK INTER + INTRA:         -11.564
REMARK INTER:                  -7.318
REMARK INTRA:                  -4.246
REMARK UNBOUND:                -3.997
REMARK  Name = lig_assembled_68.pdb
REMARK  19 active torsions:
REMARK  status: ('A' for Active; 'I' for Inactive)
REMARK    1  A    between atoms: _2  and  _9
REMARK    2  A    between atoms: _4  and  _21
REMARK    3  A    between atoms: _6  and  _7
REMARK    4  A    between atoms: _6  and  _21
REMARK    5  A    between atoms: _9  and  _10
REMARK    6  A    between atoms: _10  and  _11
REMARK    7  A    between atoms: _10  and  _16
REMARK    8  A    between atoms: _17  and  _37
REMARK    9  A    between atoms: _19  and  _25
REMARK   10  A    between atoms: _20  and  _24
REMARK   11  A    between atoms: _24  and  _25
REMARK   12  A    between atoms: _27  and  _28
REMARK   13  A    between atoms: _29  and  _30
REMARK   14  A    between atoms: _31  and  _33
REMARK   15  A    between atoms: _33  and  _34
REMARK   16  A    between atoms: _33  and  _35
REMARK   17  A    between atoms: _35  and  _36
REMARK   18  A    between atoms: _35  and  _37
REMARK   19  A    between atoms: _38  and  _40
REMARK                            x       y       z     vdW  Elec       q    Type
REMARK                         _______ _______ _______ _____ _____    ______ ____
ROOT
ATOM      1  C   UNL     1      -4.168  12.385  29.309  0.00  0.00    +0.163 C 
ENDROOT
BRANCH   1   2
ATOM      2  O   UNL     1      -2.959  12.150  28.568  0.00  0.00    -0.388 OA
ATOM      3  H   UNL     1      -2.439  12.957  28.539  0.00  0.00    +0.210 HD
ENDBRANCH   1   2
BRANCH   1   4
ATOM      4  C   UNL     1      -4.914  11.067  29.575  0.00  0.00    +0.175 C 
BRANCH   4   5
ATOM      5  C   UNL     1      -4.365   9.910  28.728  0.00  0.00    +0.176 C 
ATOM      6  O   UNL     1      -4.602  10.229  27.329  0.00  0.00    -0.332 OA
ATOM      7  C   UNL     1      -4.046   9.280  26.359  0.00  0.00    +0.277 C 
ATOM      8  C   UNL     1      -4.543   7.845  26.661  0.00  0.00    +0.110 C 
ATOM      9  C   UNL     1      -4.342   7.472  28.144  0.00  0.00    +0.143 C 
ATOM     10  C   UNL     1      -4.956   8.528  29.064  0.00  0.00    +0.133 C 
BRANCH  10  11
ATOM     11  N   UNL     1      -4.681   8.206  30.473  0.00  0.00    -0.308 N 
ATOM     12  H   UNL     1      -3.716   8.144  30.764  0.00  0.00    +0.149 HD
ATOM     13  C   UNL     1      -5.625   7.989  31.393  0.00  0.00    +0.210 C 
ATOM     14  C   UNL     1      -7.087   8.064  30.913  0.00  0.00    +0.109 C 
ATOM     15  O   UNL     1      -5.366   7.736  32.570  0.00  0.00    -0.276 OA
ENDBRANCH  10  11
BRANCH   7  16
ATOM     16  C   UNL     1      -2.504   9.308  26.389  0.00  0.00    +0.414 C 
ATOM     17  O   UNL     1      -1.864   8.257  26.380  0.00  0.00    -0.240 OA
ATOM     18  O   UNL     1      -1.899  10.380  26.423  0.00  0.00    -0.240 OA
ENDBRANCH   7  16
BRANCH   7  19
ATOM     19  O   UNL     1      -4.516   9.659  25.040  0.00  0.00    -0.343 OA
ATOM     20  C   UNL     1      -4.537   8.586  24.066  0.00  0.00    +0.198 C 
ENDBRANCH   7  19
BRANCH   9  21
ATOM     21  O   UNL     1      -4.949   6.206  28.410  0.00  0.00    -0.390 OA
ATOM     22  H   UNL     1      -5.071   6.102  29.356  0.00  0.00    +0.210 HD
ENDBRANCH   9  21
ENDBRANCH   4   5
BRANCH   4  23
ATOM     23  O   UNL     1      -6.325  11.236  29.330  0.00  0.00    -0.387 OA
ATOM     24  H   UNL     1      -6.781  10.409  29.499  0.00  0.00    +0.210 HD
ENDBRANCH   4  23
ENDBRANCH   1   4
BRANCH   1  25
ATOM     25  C   UNL     1      -3.844  13.064  30.635  0.00  0.00    +0.141 C 
BRANCH  25  28
ATOM     26  C   UNL     1      -5.156  14.902  31.639  0.00  0.00    +0.401 C 
ATOM     27  O   UNL     1      -4.264  15.742  31.498  0.00  0.00    -0.226 OA
ATOM     28  N   UNL     1      -5.043  13.625  31.270  0.00  0.00    -0.279 N 
ATOM     29  H   UNL     1      -5.826  13.010  31.436  0.00  0.00    +0.152 HD
BRANCH  26  30
ATOM     30  O   UNL     1      -6.393  15.297  32.237  0.00  0.00    -0.444 OA
BRANCH  30  31
ATOM     31  C   UNL     1      -7.179  16.013  31.281  0.00  0.00    +0.292 C 
BRANCH  31  33
ATOM     32  N   UNL     1      -7.868  14.000  30.009  0.00  0.00    -0.131 NA
ATOM     33  C   UNL     1      -7.294  15.245  30.029  0.00  0.00    +0.120 A 
ATOM     34  C   UNL     1      -6.887  15.572  28.756  0.00  0.00    +0.137 A 
ATOM     35  N   UNL     1      -7.249  14.491  28.007  0.00  0.00    -0.249 N 
ATOM     36  N   UNL     1      -7.828  13.543  28.764  0.00  0.00    -0.065 NA
BRANCH  35  37
ATOM     37  C   UNL     1      -6.984  14.257  26.603  0.00  0.00    +0.181 C 
BRANCH  37  38
ATOM     38  C   UNL     1      -5.913  13.180  26.388  0.00  0.00    +0.166 C 
BRANCH  38  39
ATOM     39  C   UNL     1      -5.041  13.400  25.160  0.00  0.00    -0.017 A 
ATOM     40  C   UNL     1      -5.551  14.162  24.092  0.00  0.00    +0.006 A 
ATOM     41  C   UNL     1      -4.775  14.410  22.958  0.00  0.00    +0.000 A 
ATOM     42  C   UNL     1      -3.480  13.908  22.874  0.00  0.00    +0.000 A 
ATOM     43  C   UNL     1      -2.954  13.168  23.927  0.00  0.00    +0.000 A 
ATOM     44  C   UNL     1      -3.726  12.919  25.065  0.00  0.00    +0.006 A 
ENDBRANCH  38  39
BRANCH  38  45
ATOM     45  O   UNL     1      -6.553  11.906  26.252  0.00  0.00    -0.385 OA
ATOM     46  H   UNL     1      -6.254  11.337  26.980  0.00  0.00    +0.210 HD
ENDBRANCH  38  45
ENDBRANCH  37  38
ENDBRANCH  35  37
ENDBRANCH  31  33
ENDBRANCH  30  31
ENDBRANCH  26  30
ENDBRANCH  25  28
ENDBRANCH   1  25
TORSDOF 17
