REMARK VINA RESULT:    -4.328      3.947      8.833
REMARK INTER + INTRA:         -10.404
REMARK INTER:                  -7.674
REMARK INTRA:                  -2.730
REMARK UNBOUND:                -2.913
REMARK  Name = lig_assembled_93.pdb
REMARK  16 active torsions:
REMARK  status: ('A' for Active; 'I' for Inactive)
REMARK    1  A    between atoms: _2  and  _9
REMARK    2  A    between atoms: _4  and  _18
REMARK    3  A    between atoms: _6  and  _7
REMARK    4  A    between atoms: _6  and  _18
REMARK    5  A    between atoms: _14  and  _34
REMARK    6  A    between atoms: _16  and  _22
REMARK    7  A    between atoms: _17  and  _21
REMARK    8  A    between atoms: _21  and  _22
REMARK    9  A    between atoms: _24  and  _25
REMARK   10  A    between atoms: _26  and  _27
REMARK   11  A    between atoms: _28  and  _30
REMARK   12  A    between atoms: _30  and  _31
REMARK   13  A    between atoms: _30  and  _32
REMARK   14  A    between atoms: _32  and  _33
REMARK   15  A    between atoms: _32  and  _34
REMARK   16  A    between atoms: _35  and  _37
REMARK                            x       y       z     vdW  Elec       q    Type
REMARK                         _______ _______ _______ _____ _____    ______ ____
ROOT
ATOM      1  C   UNL     1      -2.902  11.044  31.332  0.00  0.00    +0.163 C 
ENDROOT
BRANCH   1   2
ATOM      2  O   UNL     1      -1.838  11.090  32.296  0.00  0.00    -0.388 OA
ATOM      3  H   UNL     1      -1.806  10.260  32.778  0.00  0.00    +0.210 HD
ENDBRANCH   1   2
BRANCH   1   4
ATOM      4  C   UNL     1      -3.899  12.166  31.601  0.00  0.00    +0.141 C 
BRANCH   4   7
ATOM      5  C   UNL     1      -5.638  12.856  29.987  0.00  0.00    +0.401 C 
ATOM      6  O   UNL     1      -6.568  12.375  30.640  0.00  0.00    -0.226 OA
ATOM      7  N   UNL     1      -4.359  12.799  30.359  0.00  0.00    -0.279 N 
ATOM      8  H   UNL     1      -3.667  13.215  29.751  0.00  0.00    +0.152 HD
BRANCH   5   9
ATOM      9  O   UNL     1      -5.926  13.516  28.752  0.00  0.00    -0.444 OA
BRANCH   9  10
ATOM     10  C   UNL     1      -6.406  12.562  27.801  0.00  0.00    +0.292 C 
BRANCH  10  12
ATOM     11  N   UNL     1      -4.163  12.656  26.776  0.00  0.00    -0.131 NA
ATOM     12  C   UNL     1      -5.506  12.507  26.633  0.00  0.00    +0.121 A 
ATOM     13  C   UNL     1      -5.792  12.308  25.303  0.00  0.00    +0.143 A 
ATOM     14  N   UNL     1      -4.570  12.325  24.652  0.00  0.00    -0.219 N 
ATOM     15  N   UNL     1      -3.610  12.550  25.577  0.00  0.00    -0.060 NA
BRANCH  14  16
ATOM     16  C   UNL     1      -4.307  12.130  23.260  0.00  0.00    +0.080 A 
ATOM     17  C   UNL     1      -3.911  10.836  22.843  0.00  0.00    +0.029 A 
ATOM     18  C   UNL     1      -3.615  10.551  21.508  0.00  0.00    +0.002 A 
ATOM     19  C   UNL     1      -3.707  11.547  20.550  0.00  0.00    +0.001 A 
ATOM     20  C   UNL     1      -4.101  12.828  20.930  0.00  0.00    +0.016 A 
ATOM     21  C   UNL     1      -4.405  13.134  22.274  0.00  0.00    +0.039 A 
ATOM     22  I   UNL     1      -4.975  15.156  22.530  0.00  0.00    -0.042 I 
ENDBRANCH  14  16
ENDBRANCH  10  12
ENDBRANCH   9  10
ENDBRANCH   5   9
ENDBRANCH   4   7
ENDBRANCH   1   4
BRANCH   1  23
ATOM     23  C   UNL     1      -3.629   9.689  31.379  0.00  0.00    +0.175 C 
BRANCH  23  24
ATOM     24  C   UNL     1      -3.328   8.827  30.144  0.00  0.00    +0.176 C 
ATOM     25  O   UNL     1      -4.100   9.357  29.031  0.00  0.00    -0.332 OA
ATOM     26  C   UNL     1      -3.858   8.721  27.732  0.00  0.00    +0.277 C 
ATOM     27  C   UNL     1      -4.066   7.190  27.832  0.00  0.00    +0.110 C 
ATOM     28  C   UNL     1      -3.290   6.586  29.022  0.00  0.00    +0.143 C 
ATOM     29  C   UNL     1      -3.614   7.325  30.320  0.00  0.00    +0.133 C 
BRANCH  29  30
ATOM     30  N   UNL     1      -2.804   6.797  31.429  0.00  0.00    -0.308 N 
ATOM     31  H   UNL     1      -1.798   6.851  31.346  0.00  0.00    +0.149 HD
ATOM     32  C   UNL     1      -3.310   6.252  32.539  0.00  0.00    +0.210 C 
ATOM     33  C   UNL     1      -4.845   6.161  32.624  0.00  0.00    +0.109 C 
ATOM     34  O   UNL     1      -2.607   5.831  33.458  0.00  0.00    -0.276 OA
ENDBRANCH  29  30
BRANCH  26  35
ATOM     35  C   UNL     1      -2.426   9.015  27.237  0.00  0.00    +0.414 C 
ATOM     36  O   UNL     1      -1.920  10.121  27.425  0.00  0.00    -0.240 OA
ATOM     37  O   UNL     1      -1.778   8.147  26.652  0.00  0.00    -0.240 OA
ENDBRANCH  26  35
BRANCH  28  38
ATOM     38  O   UNL     1      -3.629   5.206  29.167  0.00  0.00    -0.390 OA
ATOM     39  H   UNL     1      -4.507   5.130  29.549  0.00  0.00    +0.210 HD
ENDBRANCH  28  38
BRANCH  26  40
ATOM     40  O   UNL     1      -4.820   9.253  26.786  0.00  0.00    -0.343 OA
ATOM     41  C   UNL     1      -4.926   8.517  25.541  0.00  0.00    +0.198 C 
ENDBRANCH  26  40
ENDBRANCH  23  24
BRANCH  23  42
ATOM     42  O   UNL     1      -5.050   9.892  31.509  0.00  0.00    -0.387 OA
ATOM     43  H   UNL     1      -5.436  10.019  30.639  0.00  0.00    +0.210 HD
ENDBRANCH  23  42
ENDBRANCH   1  23
TORSDOF 14
