REMARK VINA RESULT:    -4.226      2.805      6.358
REMARK INTER + INTRA:         -13.654
REMARK INTER:                  -9.604
REMARK INTRA:                  -4.050
REMARK UNBOUND:                -3.746
REMARK  Name = lig_assembled_30.pdb
REMARK  27 active torsions:
REMARK  status: ('A' for Active; 'I' for Inactive)
REMARK    1  A    between atoms: _2  and  _9
REMARK    2  A    between atoms: _4  and  _25
REMARK    3  A    between atoms: _5  and  _18
REMARK    4  A    between atoms: _5  and  _19
REMARK    5  A    between atoms: _6  and  _7
REMARK    6  A    between atoms: _6  and  _25
REMARK    7  A    between atoms: _9  and  _10
REMARK    8  A    between atoms: _10  and  _11
REMARK    9  A    between atoms: _11  and  _12
REMARK   10  A    between atoms: _12  and  _13
REMARK   11  A    between atoms: _13  and  _14
REMARK   12  A    between atoms: _14  and  _15
REMARK   13  A    between atoms: _15  and  _16
REMARK   14  A    between atoms: _16  and  _17
REMARK   15  A    between atoms: _17  and  _18
REMARK   16  A    between atoms: _21  and  _41
REMARK   17  A    between atoms: _23  and  _29
REMARK   18  A    between atoms: _24  and  _28
REMARK   19  A    between atoms: _28  and  _29
REMARK   20  A    between atoms: _31  and  _32
REMARK   21  A    between atoms: _33  and  _34
REMARK   22  A    between atoms: _35  and  _37
REMARK   23  A    between atoms: _37  and  _38
REMARK   24  A    between atoms: _37  and  _39
REMARK   25  A    between atoms: _39  and  _40
REMARK   26  A    between atoms: _39  and  _41
REMARK   27  A    between atoms: _42  and  _44
REMARK                            x       y       z     vdW  Elec       q    Type
REMARK                         _______ _______ _______ _____ _____    ______ ____
ROOT
ATOM      1  C   UNL     1      -4.630   9.358  22.466  0.00  0.00    +0.401 C 
ATOM      2  O   UNL     1      -3.838   8.420  22.350  0.00  0.00    -0.226 OA
ATOM      3  N   UNL     1      -5.617   9.394  23.362  0.00  0.00    -0.279 N 
ATOM      4  H   UNL     1      -6.210  10.212  23.387  0.00  0.00    +0.152 HD
ENDROOT
BRANCH   1   5
ATOM      5  O   UNL     1      -4.499  10.489  21.601  0.00  0.00    -0.444 OA
BRANCH   5   6
ATOM      6  C   UNL     1      -3.446  11.334  22.076  0.00  0.00    +0.292 C 
BRANCH   6   8
ATOM      7  N   UNL     1      -3.308  13.804  22.006  0.00  0.00    -0.131 NA
ATOM      8  C   UNL     1      -3.971  12.672  22.401  0.00  0.00    +0.120 A 
ATOM      9  C   UNL     1      -5.105  13.033  23.094  0.00  0.00    +0.137 A 
ATOM     10  N   UNL     1      -5.072  14.394  23.086  0.00  0.00    -0.251 N 
ATOM     11  N   UNL     1      -3.993  14.857  22.434  0.00  0.00    -0.065 NA
BRANCH  10  12
ATOM     12  C   UNL     1      -6.003  15.310  23.708  0.00  0.00    +0.145 C 
BRANCH  12  13
ATOM     13  C   UNL     1      -7.013  14.566  24.575  0.00  0.00    +0.023 C 
BRANCH  13  14
ATOM     14  C   UNL     1      -6.850  14.898  26.056  0.00  0.00    +0.002 C 
BRANCH  14  15
ATOM     15  C   UNL     1      -7.303  13.717  26.914  0.00  0.00    +0.000 C 
BRANCH  15  16
ATOM     16  C   UNL     1      -7.370  14.083  28.394  0.00  0.00    +0.000 C 
BRANCH  16  17
ATOM     17  C   UNL     1      -5.969  14.128  29.006  0.00  0.00    +0.000 C 
BRANCH  17  18
ATOM     18  C   UNL     1      -5.703  15.482  29.659  0.00  0.00    +0.000 C 
BRANCH  18  19
ATOM     19  C   UNL     1      -4.792  15.350  30.879  0.00  0.00    +0.001 C 
BRANCH  19  20
ATOM     20  C   UNL     1      -3.925  14.097  30.766  0.00  0.00    +0.011 C 
BRANCH  20  21
ATOM     21  C   UNL     1      -3.673  13.453  32.127  0.00  0.00    +0.120 C 
BRANCH  21  22
ATOM     22  C   UNL     1      -2.195  13.294  32.398  0.00  0.00    +0.305 C 
ATOM     23  O   UNL     1      -1.438  14.189  32.742  0.00  0.00    -0.251 OA
BRANCH  22  24
ATOM     24  O   UNL     1      -1.772  12.022  32.219  0.00  0.00    -0.481 OA
ATOM     25  H   UNL     1      -1.650  11.528  33.051  0.00  0.00    +0.295 HD
ENDBRANCH  22  24
ENDBRANCH  21  22
ENDBRANCH  20  21
ENDBRANCH  19  20
ENDBRANCH  18  19
ENDBRANCH  17  18
ENDBRANCH  16  17
ENDBRANCH  15  16
ENDBRANCH  14  15
ENDBRANCH  13  14
ENDBRANCH  12  13
ENDBRANCH  10  12
ENDBRANCH   6   8
ENDBRANCH   5   6
ENDBRANCH   1   5
BRANCH   3  26
ATOM     26  C   UNL     1      -5.892   8.311  24.314  0.00  0.00    +0.141 C 
BRANCH  26  27
ATOM     27  C   UNL     1      -5.396   8.647  25.717  0.00  0.00    +0.163 C 
BRANCH  27  28
ATOM     28  O   UNL     1      -6.434   8.396  26.679  0.00  0.00    -0.388 OA
ATOM     29  H   UNL     1      -6.087   7.851  27.389  0.00  0.00    +0.210 HD
ENDBRANCH  27  28
BRANCH  27  30
ATOM     30  C   UNL     1      -4.141   7.814  26.032  0.00  0.00    +0.175 C 
BRANCH  30  31
ATOM     31  C   UNL     1      -3.598   8.098  27.440  0.00  0.00    +0.176 C 
ATOM     32  O   UNL     1      -4.474   7.444  28.398  0.00  0.00    -0.332 OA
ATOM     33  C   UNL     1      -4.050   7.518  29.799  0.00  0.00    +0.277 C 
ATOM     34  C   UNL     1      -3.823   8.991  30.218  0.00  0.00    +0.110 C 
ATOM     35  C   UNL     1      -2.922   9.737  29.212  0.00  0.00    +0.143 C 
ATOM     36  C   UNL     1      -3.454   9.592  27.786  0.00  0.00    +0.133 C 
BRANCH  36  37
ATOM     37  N   UNL     1      -2.541  10.233  26.827  0.00  0.00    -0.308 N 
ATOM     38  H   UNL     1      -1.643   9.798  26.667  0.00  0.00    +0.149 HD
ATOM     39  C   UNL     1      -2.821  11.353  26.154  0.00  0.00    +0.210 C 
ATOM     40  C   UNL     1      -4.186  12.006  26.440  0.00  0.00    +0.109 C 
ATOM     41  O   UNL     1      -2.042  11.860  25.346  0.00  0.00    -0.276 OA
ENDBRANCH  36  37
BRANCH  33  42
ATOM     42  C   UNL     1      -2.752   6.713  30.021  0.00  0.00    +0.414 C 
ATOM     43  O   UNL     1      -2.198   6.157  29.073  0.00  0.00    -0.240 OA
ATOM     44  O   UNL     1      -2.260   6.620  31.146  0.00  0.00    -0.240 OA
ENDBRANCH  33  42
BRANCH  35  45
ATOM     45  O   UNL     1      -2.863  11.123  29.553  0.00  0.00    -0.390 OA
ATOM     46  H   UNL     1      -2.900  11.652  28.753  0.00  0.00    +0.210 HD
ENDBRANCH  35  45
BRANCH  33  47
ATOM     47  O   UNL     1      -5.112   6.967  30.619  0.00  0.00    -0.343 OA
ATOM     48  C   UNL     1      -6.233   7.858  30.849  0.00  0.00    +0.198 C 
ENDBRANCH  33  47
ENDBRANCH  30  31
BRANCH  30  49
ATOM     49  O   UNL     1      -3.120   8.063  25.045  0.00  0.00    -0.387 OA
ATOM     50  H   UNL     1      -3.264   7.495  24.285  0.00  0.00    +0.210 HD
ENDBRANCH  30  49
ENDBRANCH  27  30
ENDBRANCH  26  27
ENDBRANCH   3  26
TORSDOF 25
