REMARK VINA RESULT:    -4.352      3.918     10.376
REMARK INTER + INTRA:         -11.284
REMARK INTER:                  -8.741
REMARK INTRA:                  -2.543
REMARK UNBOUND:                -3.243
REMARK  Name = lig_assembled_78.pdb
REMARK  18 active torsions:
REMARK  status: ('A' for Active; 'I' for Inactive)
REMARK    1  A    between atoms: _2  and  _9
REMARK    2  A    between atoms: _4  and  _21
REMARK    3  A    between atoms: _6  and  _7
REMARK    4  A    between atoms: _6  and  _21
REMARK    5  A    between atoms: _9  and  _41
REMARK    6  A    between atoms: _10  and  _41
REMARK    7  A    between atoms: _17  and  _37
REMARK    8  A    between atoms: _19  and  _25
REMARK    9  A    between atoms: _20  and  _24
REMARK   10  A    between atoms: _24  and  _25
REMARK   11  A    between atoms: _27  and  _28
REMARK   12  A    between atoms: _29  and  _30
REMARK   13  A    between atoms: _31  and  _33
REMARK   14  A    between atoms: _33  and  _34
REMARK   15  A    between atoms: _33  and  _35
REMARK   16  A    between atoms: _35  and  _36
REMARK   17  A    between atoms: _35  and  _37
REMARK   18  A    between atoms: _38  and  _40
REMARK                            x       y       z     vdW  Elec       q    Type
REMARK                         _______ _______ _______ _____ _____    ______ ____
ROOT
ATOM      1  C   UNL     1      -6.882  11.029  16.064  0.00  0.00    +0.163 C 
ENDROOT
BRANCH   1   2
ATOM      2  O   UNL     1      -5.737  11.793  15.654  0.00  0.00    -0.388 OA
ATOM      3  H   UNL     1      -5.557  12.475  16.305  0.00  0.00    +0.210 HD
ENDBRANCH   1   2
BRANCH   1   4
ATOM      4  C   UNL     1      -6.661   9.527  15.811  0.00  0.00    +0.175 C 
BRANCH   4   5
ATOM      5  C   UNL     1      -5.301   9.246  15.155  0.00  0.00    +0.176 C 
ATOM      6  O   UNL     1      -5.435   9.490  13.727  0.00  0.00    -0.332 OA
ATOM      7  C   UNL     1      -4.200   9.373  12.946  0.00  0.00    +0.277 C 
ATOM      8  C   UNL     1      -3.539   7.993  13.182  0.00  0.00    +0.110 C 
ATOM      9  C   UNL     1      -3.405   7.675  14.686  0.00  0.00    +0.143 C 
ATOM     10  C   UNL     1      -4.747   7.831  15.402  0.00  0.00    +0.133 C 
BRANCH  10  11
ATOM     11  N   UNL     1      -4.588   7.611  16.848  0.00  0.00    -0.308 N 
ATOM     12  H   UNL     1      -4.039   8.279  17.369  0.00  0.00    +0.149 HD
ATOM     13  C   UNL     1      -5.122   6.585  17.516  0.00  0.00    +0.210 C 
ATOM     14  C   UNL     1      -5.931   5.569  16.688  0.00  0.00    +0.109 C 
ATOM     15  O   UNL     1      -4.985   6.433  18.730  0.00  0.00    -0.276 OA
ENDBRANCH  10  11
BRANCH   7  16
ATOM     16  C   UNL     1      -3.207  10.492  13.323  0.00  0.00    +0.414 C 
ATOM     17  O   UNL     1      -3.620  11.603  13.653  0.00  0.00    -0.240 OA
ATOM     18  O   UNL     1      -1.993  10.283  13.297  0.00  0.00    -0.240 OA
ENDBRANCH   7  16
BRANCH   7  19
ATOM     19  O   UNL     1      -4.547   9.481  11.541  0.00  0.00    -0.343 OA
ATOM     20  C   UNL     1      -4.296   8.288  10.756  0.00  0.00    +0.198 C 
ENDBRANCH   7  19
BRANCH   9  21
ATOM     21  O   UNL     1      -2.933   6.338  14.855  0.00  0.00    -0.390 OA
ATOM     22  H   UNL     1      -3.478   5.886  15.503  0.00  0.00    +0.210 HD
ENDBRANCH   9  21
ENDBRANCH   4   5
BRANCH   4  23
ATOM     23  O   UNL     1      -7.725   8.999  14.995  0.00  0.00    -0.387 OA
ATOM     24  H   UNL     1      -7.833   8.062  15.176  0.00  0.00    +0.210 HD
ENDBRANCH   4  23
ENDBRANCH   1   4
BRANCH   1  25
ATOM     25  C   UNL     1      -7.160  11.260  17.546  0.00  0.00    +0.141 C 
BRANCH  25  28
ATOM     26  C   UNL     1      -5.133  10.919  18.917  0.00  0.00    +0.401 C 
ATOM     27  O   UNL     1      -5.283   9.698  19.004  0.00  0.00    -0.226 OA
ATOM     28  N   UNL     1      -5.966  11.727  18.260  0.00  0.00    -0.279 N 
ATOM     29  H   UNL     1      -5.764  12.717  18.254  0.00  0.00    +0.152 HD
BRANCH  26  30
ATOM     30  O   UNL     1      -4.008  11.527  19.556  0.00  0.00    -0.444 OA
BRANCH  30  31
ATOM     31  C   UNL     1      -4.434  12.181  20.754  0.00  0.00    +0.292 C 
BRANCH  31  33
ATOM     32  N   UNL     1      -3.303  10.261  21.839  0.00  0.00    -0.131 NA
ATOM     33  C   UNL     1      -4.145  11.337  21.929  0.00  0.00    +0.120 A 
ATOM     34  C   UNL     1      -4.607  11.440  23.222  0.00  0.00    +0.139 A 
ATOM     35  N   UNL     1      -3.962  10.436  23.881  0.00  0.00    -0.230 N 
ATOM     36  N   UNL     1      -3.216   9.701  23.038  0.00  0.00    -0.064 NA
BRANCH  35  37
ATOM     37  C   UNL     1      -4.060  10.061  25.270  0.00  0.00    +0.316 C 
BRANCH  37  38
ATOM     38  S   UNL     1      -2.579  10.372  26.196  0.00  0.00    +0.017 S 
ATOM     39  O   UNL     1      -1.800   9.156  26.305  0.00  0.00    -0.168 OA
ATOM     40  O   UNL     1      -1.984  11.596  25.688  0.00  0.00    -0.168 OA
BRANCH  38  41
ATOM     41  C   UNL     1      -3.162  10.724  27.842  0.00  0.00    +0.090 A 
ATOM     42  C   UNL     1      -3.989  11.833  28.051  0.00  0.00    +0.027 A 
ATOM     43  C   UNL     1      -4.469  12.097  29.333  0.00  0.00    +0.002 A 
ATOM     44  C   UNL     1      -4.140  11.249  30.392  0.00  0.00    +0.000 A 
ATOM     45  C   UNL     1      -3.330  10.133  30.173  0.00  0.00    +0.002 A 
ATOM     46  C   UNL     1      -2.837   9.865  28.895  0.00  0.00    +0.027 A 
ENDBRANCH  38  41
ENDBRANCH  37  38
ENDBRANCH  35  37
ENDBRANCH  31  33
ENDBRANCH  30  31
ENDBRANCH  26  30
ENDBRANCH  25  28
ENDBRANCH   1  25
TORSDOF 16
