REMARK VINA RESULT:    -5.714      2.553     13.216
REMARK INTER + INTRA:         -14.121
REMARK INTER:                 -10.748
REMARK INTRA:                  -3.372
REMARK UNBOUND:                -3.396
REMARK  Name = lig_assembled_34.pdb
REMARK  19 active torsions:
REMARK  status: ('A' for Active; 'I' for Inactive)
REMARK    1  A    between atoms: _2  and  _9
REMARK    2  A    between atoms: _4  and  _37
REMARK    3  A    between atoms: _6  and  _7
REMARK    4  A    between atoms: _6  and  _37
REMARK    5  A    between atoms: _11  and  _12
REMARK    6  A    between atoms: _13  and  _14
REMARK    7  A    between atoms: _18  and  _31
REMARK    8  A    between atoms: _33  and  _53
REMARK    9  A    between atoms: _35  and  _41
REMARK   10  A    between atoms: _36  and  _40
REMARK   11  A    between atoms: _40  and  _41
REMARK   12  A    between atoms: _43  and  _44
REMARK   13  A    between atoms: _45  and  _46
REMARK   14  A    between atoms: _47  and  _49
REMARK   15  A    between atoms: _49  and  _50
REMARK   16  A    between atoms: _49  and  _51
REMARK   17  A    between atoms: _51  and  _52
REMARK   18  A    between atoms: _51  and  _53
REMARK   19  A    between atoms: _54  and  _56
REMARK                            x       y       z     vdW  Elec       q    Type
REMARK                         _______ _______ _______ _____ _____    ______ ____
ROOT
ATOM      1  N   UNL     1      -5.216  13.692  21.669  0.00  0.00    -0.131 NA
ATOM      2  C   UNL     1      -4.985  12.436  21.184  0.00  0.00    +0.121 A 
ATOM      3  C   UNL     1      -4.601  11.624  22.222  0.00  0.00    +0.143 A 
ATOM      4  N   UNL     1      -4.636  12.419  23.347  0.00  0.00    -0.220 N 
ATOM      5  N   UNL     1      -4.988  13.681  22.981  0.00  0.00    -0.060 NA
ENDROOT
BRANCH   4   6
ATOM      6  C   UNL     1      -4.403  12.037  24.695  0.00  0.00    +0.068 A 
ATOM      7  C   UNL     1      -5.430  11.437  25.431  0.00  0.00    +0.038 A 
ATOM      8  C   UNL     1      -5.312  11.148  26.813  0.00  0.00    +0.007 A 
ATOM      9  C   UNL     1      -4.083  11.408  27.452  0.00  0.00    -0.008 A 
ATOM     10  C   UNL     1      -3.032  11.971  26.688  0.00  0.00    +0.011 A 
ATOM     11  C   UNL     1      -3.189  12.299  25.330  0.00  0.00    +0.028 A 
BRANCH   9  12
ATOM     12  C   UNL     1      -3.824  11.208  28.915  0.00  0.00    +0.004 A 
ATOM     13  C   UNL     1      -3.366  10.027  29.420  0.00  0.00    +0.026 A 
ATOM     14  C   UNL     1      -3.147   8.839  28.586  0.00  0.00    +0.016 A 
ATOM     15  C   UNL     1      -2.879   7.641  29.127  0.00  0.00    +0.051 A 
ATOM     16  C   UNL     1      -2.759   7.486  30.597  0.00  0.00    +0.183 A 
ATOM     17  O   UNL     1      -2.578   6.385  31.109  0.00  0.00    -0.288 OA
ATOM     18  C   UNL     1      -2.790   8.715  31.416  0.00  0.00    +0.097 A 
ATOM     19  C   UNL     1      -3.040   9.903  30.854  0.00  0.00    +0.140 A 
ATOM     20  O   UNL     1      -2.919  11.041  31.638  0.00  0.00    -0.455 OA
ATOM     21  C   UNL     1      -3.411  12.224  31.156  0.00  0.00    +0.140 A 
ATOM     22  C   UNL     1      -3.350  13.317  32.021  0.00  0.00    +0.092 A 
ATOM     23  C   UNL     1      -3.883  14.532  31.619  0.00  0.00    +0.120 A 
ATOM     24  C   UNL     1      -4.544  14.644  30.401  0.00  0.00    +0.046 A 
ATOM     25  C   UNL     1      -4.587  13.543  29.540  0.00  0.00    +0.016 A 
ATOM     26  C   UNL     1      -3.963  12.334  29.882  0.00  0.00    +0.026 A 
BRANCH  23  27
ATOM     27  O   UNL     1      -3.731  15.608  32.443  0.00  0.00    -0.507 OA
ATOM     28  H   UNL     1      -3.717  15.279  33.356  0.00  0.00    +0.292 HD
ENDBRANCH  23  27
ENDBRANCH   9  12
BRANCH   8  29
ATOM     29  C   UNL     1      -6.563  10.648  27.508  0.00  0.00    +0.072 C 
ATOM     30  O   UNL     1      -7.328  11.542  27.993  0.00  0.00    -0.545 OA
ATOM     31  O   UNL     1      -6.725   9.398  27.628  0.00  0.00    -0.545 OA
ENDBRANCH   8  29
ENDBRANCH   4   6
BRANCH   2  32
ATOM     32  C   UNL     1      -5.149  12.095  19.758  0.00  0.00    +0.292 C 
BRANCH  32  33
ATOM     33  O   UNL     1      -6.511  11.769  19.468  0.00  0.00    -0.444 OA
BRANCH  33  34
ATOM     34  C   UNL     1      -6.555  10.638  18.594  0.00  0.00    +0.401 C 
ATOM     35  O   UNL     1      -7.291  10.674  17.605  0.00  0.00    -0.226 OA
ATOM     36  N   UNL     1      -5.780   9.599  18.910  0.00  0.00    -0.279 N 
ATOM     37  H   UNL     1      -5.204   9.668  19.737  0.00  0.00    +0.152 HD
BRANCH  36  38
ATOM     38  C   UNL     1      -5.718   8.361  18.123  0.00  0.00    +0.141 C 
BRANCH  38  39
ATOM     39  C   UNL     1      -4.578   8.389  17.110  0.00  0.00    +0.163 C 
BRANCH  39  40
ATOM     40  O   UNL     1      -3.824   7.168  17.185  0.00  0.00    -0.388 OA
ATOM     41  H   UNL     1      -4.414   6.439  17.392  0.00  0.00    +0.210 HD
ENDBRANCH  39  40
BRANCH  39  42
ATOM     42  C   UNL     1      -5.151   8.595  15.697  0.00  0.00    +0.175 C 
BRANCH  42  43
ATOM     43  C   UNL     1      -4.595   9.859  15.026  0.00  0.00    +0.176 C 
ATOM     44  O   UNL     1      -5.688  10.508  14.320  0.00  0.00    -0.332 OA
ATOM     45  C   UNL     1      -5.366  11.798  13.702  0.00  0.00    +0.277 C 
ATOM     46  C   UNL     1      -4.145  11.657  12.760  0.00  0.00    +0.110 C 
ATOM     47  C   UNL     1      -2.968  10.944  13.458  0.00  0.00    +0.143 C 
ATOM     48  C   UNL     1      -3.415   9.615  14.068  0.00  0.00    +0.133 C 
BRANCH  48  49
ATOM     49  N   UNL     1      -2.306   8.986  14.803  0.00  0.00    -0.308 N 
ATOM     50  H   UNL     1      -1.980   9.442  15.644  0.00  0.00    +0.149 HD
ATOM     51  C   UNL     1      -1.703   7.854  14.433  0.00  0.00    +0.210 C 
ATOM     52  C   UNL     1      -2.207   7.198  13.133  0.00  0.00    +0.109 C 
ATOM     53  O   UNL     1      -0.787   7.342  15.077  0.00  0.00    -0.276 OA
ENDBRANCH  48  49
BRANCH  45  54
ATOM     54  C   UNL     1      -5.067  12.861  14.779  0.00  0.00    +0.414 C 
ATOM     55  O   UNL     1      -5.784  12.956  15.774  0.00  0.00    -0.240 OA
ATOM     56  O   UNL     1      -4.108  13.624  14.653  0.00  0.00    -0.240 OA
ENDBRANCH  45  54
BRANCH  47  57
ATOM     57  O   UNL     1      -1.924  10.700  12.513  0.00  0.00    -0.390 OA
ATOM     58  H   UNL     1      -1.740  11.506  12.025  0.00  0.00    +0.210 HD
ENDBRANCH  47  57
BRANCH  45  59
ATOM     59  O   UNL     1      -6.509  12.214  12.910  0.00  0.00    -0.343 OA
ATOM     60  C   UNL     1      -7.572  11.233  12.807  0.00  0.00    +0.198 C 
ENDBRANCH  45  59
ENDBRANCH  42  43
BRANCH  42  61
ATOM     61  O   UNL     1      -6.591   8.651  15.748  0.00  0.00    -0.387 OA
ATOM     62  H   UNL     1      -6.944   7.761  15.807  0.00  0.00    +0.210 HD
ENDBRANCH  42  61
ENDBRANCH  39  42
ENDBRANCH  38  39
ENDBRANCH  36  38
ENDBRANCH  33  34
ENDBRANCH  32  33
ENDBRANCH   2  32
TORSDOF 17
