REMARK VINA RESULT:    -3.630      2.132      7.827
REMARK INTER + INTRA:         -10.709
REMARK INTER:                  -7.981
REMARK INTRA:                  -2.728
REMARK UNBOUND:                -4.108
REMARK  Name = lig_assembled_53.pdb
REMARK  18 active torsions:
REMARK  status: ('A' for Active; 'I' for Inactive)
REMARK    1  A    between atoms: _2  and  _9
REMARK    2  A    between atoms: _4  and  _16
REMARK    3  A    between atoms: _5  and  _9
REMARK    4  A    between atoms: _5  and  _10
REMARK    5  A    between atoms: _6  and  _7
REMARK    6  A    between atoms: _6  and  _16
REMARK    7  A    between atoms: _12  and  _32
REMARK    8  A    between atoms: _14  and  _20
REMARK    9  A    between atoms: _15  and  _19
REMARK   10  A    between atoms: _19  and  _20
REMARK   11  A    between atoms: _22  and  _23
REMARK   12  A    between atoms: _24  and  _25
REMARK   13  A    between atoms: _26  and  _28
REMARK   14  A    between atoms: _28  and  _29
REMARK   15  A    between atoms: _28  and  _30
REMARK   16  A    between atoms: _30  and  _31
REMARK   17  A    between atoms: _30  and  _32
REMARK   18  A    between atoms: _33  and  _35
REMARK                            x       y       z     vdW  Elec       q    Type
REMARK                         _______ _______ _______ _____ _____    ______ ____
ROOT
ATOM      1  C   UNL     1      -5.904   9.187  23.994  0.00  0.00    +0.175 C 
ENDROOT
BRANCH   1   2
ATOM      2  C   UNL     1      -4.987  10.413  23.880  0.00  0.00    +0.176 C 
ATOM      3  O   UNL     1      -5.379  11.361  24.911  0.00  0.00    -0.332 OA
ATOM      4  C   UNL     1      -4.539  12.558  25.023  0.00  0.00    +0.277 C 
ATOM      5  C   UNL     1      -4.442  13.281  23.657  0.00  0.00    +0.110 C 
ATOM      6  C   UNL     1      -4.059  12.306  22.523  0.00  0.00    +0.143 C 
ATOM      7  C   UNL     1      -4.994  11.097  22.500  0.00  0.00    +0.133 C 
BRANCH   7   8
ATOM      8  N   UNL     1      -4.567  10.135  21.472  0.00  0.00    -0.308 N 
ATOM      9  H   UNL     1      -3.662   9.698  21.583  0.00  0.00    +0.149 HD
ATOM     10  C   UNL     1      -5.295   9.801  20.404  0.00  0.00    +0.210 C 
ATOM     11  C   UNL     1      -6.657  10.504  20.251  0.00  0.00    +0.109 C 
ATOM     12  O   UNL     1      -4.918   8.980  19.567  0.00  0.00    -0.276 OA
ENDBRANCH   7   8
BRANCH   4  13
ATOM     13  C   UNL     1      -3.124  12.189  25.514  0.00  0.00    +0.414 C 
ATOM     14  O   UNL     1      -2.133  12.574  24.894  0.00  0.00    -0.240 OA
ATOM     15  O   UNL     1      -2.973  11.507  26.528  0.00  0.00    -0.240 OA
ENDBRANCH   4  13
BRANCH   4  16
ATOM     16  O   UNL     1      -5.166  13.458  25.973  0.00  0.00    -0.343 OA
ATOM     17  C   UNL     1      -6.425  12.991  26.520  0.00  0.00    +0.198 C 
ENDBRANCH   4  16
BRANCH   6  18
ATOM     18  O   UNL     1      -4.128  12.979  21.266  0.00  0.00    -0.390 OA
ATOM     19  H   UNL     1      -3.267  13.346  21.050  0.00  0.00    +0.210 HD
ENDBRANCH   6  18
ENDBRANCH   1   2
BRANCH   1  20
ATOM     20  O   UNL     1      -7.286   9.597  23.983  0.00  0.00    -0.387 OA
ATOM     21  H   UNL     1      -7.849   8.823  23.900  0.00  0.00    +0.210 HD
ENDBRANCH   1  20
BRANCH   1  22
ATOM     22  C   UNL     1      -5.607   8.357  25.255  0.00  0.00    +0.163 C 
BRANCH  22  23
ATOM     23  O   UNL     1      -5.921   9.099  26.444  0.00  0.00    -0.388 OA
ATOM     24  H   UNL     1      -6.222   9.979  26.203  0.00  0.00    +0.210 HD
ENDBRANCH  22  23
BRANCH  22  25
ATOM     25  C   UNL     1      -4.136   7.954  25.265  0.00  0.00    +0.141 C 
BRANCH  25  28
ATOM     26  C   UNL     1      -2.286   7.978  26.902  0.00  0.00    +0.401 C 
ATOM     27  O   UNL     1      -1.701   7.017  26.397  0.00  0.00    -0.226 OA
ATOM     28  N   UNL     1      -3.433   8.478  26.442  0.00  0.00    -0.279 N 
ATOM     29  H   UNL     1      -3.841   9.263  26.931  0.00  0.00    +0.152 HD
BRANCH  26  30
ATOM     30  O   UNL     1      -1.720   8.606  28.055  0.00  0.00    -0.444 OA
BRANCH  30  31
ATOM     31  C   UNL     1      -2.575   8.395  29.182  0.00  0.00    +0.292 C 
BRANCH  31  33
ATOM     32  N   UNL     1      -4.322  10.150  29.097  0.00  0.00    -0.131 NA
ATOM     33  C   UNL     1      -3.158   9.672  29.635  0.00  0.00    +0.120 A 
ATOM     34  C   UNL     1      -2.707  10.557  30.588  0.00  0.00    +0.137 A 
ATOM     35  N   UNL     1      -3.601  11.584  30.539  0.00  0.00    -0.241 N 
ATOM     36  N   UNL     1      -4.597  11.312  29.672  0.00  0.00    -0.065 NA
BRANCH  35  37
ATOM     37  C   UNL     1      -3.706  12.775  31.356  0.00  0.00    +0.265 C 
BRANCH  37  38
ATOM     38  C   UNL     1      -2.510  13.070  32.221  0.00  0.00    +0.326 C 
ATOM     39  O   UNL     1      -2.407  12.865  33.421  0.00  0.00    -0.249 OA
BRANCH  38  40
ATOM     40  O   UNL     1      -1.489  13.633  31.521  0.00  0.00    -0.479 OA
ATOM     41  H   UNL     1      -1.199  13.149  30.725  0.00  0.00    +0.295 HD
ENDBRANCH  38  40
ENDBRANCH  37  38
ENDBRANCH  35  37
ENDBRANCH  31  33
ENDBRANCH  30  31
ENDBRANCH  26  30
ENDBRANCH  25  28
ENDBRANCH  22  25
ENDBRANCH   1  22
TORSDOF 16
