REMARK VINA RESULT:    -5.014      3.070      4.127
REMARK INTER + INTRA:         -12.507
REMARK INTER:                 -10.116
REMARK INTRA:                  -2.391
REMARK UNBOUND:                -3.243
REMARK  Name = lig_assembled_78.pdb
REMARK  18 active torsions:
REMARK  status: ('A' for Active; 'I' for Inactive)
REMARK    1  A    between atoms: _2  and  _9
REMARK    2  A    between atoms: _4  and  _21
REMARK    3  A    between atoms: _6  and  _7
REMARK    4  A    between atoms: _6  and  _21
REMARK    5  A    between atoms: _9  and  _41
REMARK    6  A    between atoms: _10  and  _41
REMARK    7  A    between atoms: _17  and  _37
REMARK    8  A    between atoms: _19  and  _25
REMARK    9  A    between atoms: _20  and  _24
REMARK   10  A    between atoms: _24  and  _25
REMARK   11  A    between atoms: _27  and  _28
REMARK   12  A    between atoms: _29  and  _30
REMARK   13  A    between atoms: _31  and  _33
REMARK   14  A    between atoms: _33  and  _34
REMARK   15  A    between atoms: _33  and  _35
REMARK   16  A    between atoms: _35  and  _36
REMARK   17  A    between atoms: _35  and  _37
REMARK   18  A    between atoms: _38  and  _40
REMARK                            x       y       z     vdW  Elec       q    Type
REMARK                         _______ _______ _______ _____ _____    ______ ____
ROOT
ATOM      1  C   UNL     1      -2.957  11.745  22.582  0.00  0.00    +0.163 C 
ENDROOT
BRANCH   1   2
ATOM      2  O   UNL     1      -2.905  12.666  23.683  0.00  0.00    -0.388 OA
ATOM      3  H   UNL     1      -3.797  12.873  23.971  0.00  0.00    +0.210 HD
ENDBRANCH   1   2
BRANCH   1   4
ATOM      4  C   UNL     1      -3.722  10.468  22.969  0.00  0.00    +0.175 C 
BRANCH   4   5
ATOM      5  C   UNL     1      -3.787  10.272  24.491  0.00  0.00    +0.176 C 
ATOM      6  O   UNL     1      -3.260   8.951  24.795  0.00  0.00    -0.332 OA
ATOM      7  C   UNL     1      -3.146   8.627  26.220  0.00  0.00    +0.277 C 
ATOM      8  C   UNL     1      -4.508   8.823  26.931  0.00  0.00    +0.110 C 
ATOM      9  C   UNL     1      -5.123  10.202  26.612  0.00  0.00    +0.143 C 
ATOM     10  C   UNL     1      -5.191  10.437  25.102  0.00  0.00    +0.133 C 
BRANCH  10  11
ATOM     11  N   UNL     1      -5.698  11.787  24.813  0.00  0.00    -0.308 N 
ATOM     12  H   UNL     1      -5.241  12.569  25.262  0.00  0.00    +0.149 HD
ATOM     13  C   UNL     1      -6.722  12.048  23.996  0.00  0.00    +0.210 C 
ATOM     14  C   UNL     1      -7.413  10.834  23.347  0.00  0.00    +0.109 C 
ATOM     15  O   UNL     1      -7.115  13.191  23.761  0.00  0.00    -0.276 OA
ENDBRANCH  10  11
BRANCH   7  16
ATOM     16  C   UNL     1      -2.078   9.510  26.898  0.00  0.00    +0.414 C 
ATOM     17  O   UNL     1      -2.210   9.850  28.073  0.00  0.00    -0.240 OA
ATOM     18  O   UNL     1      -1.086   9.883  26.271  0.00  0.00    -0.240 OA
ENDBRANCH   7  16
BRANCH   7  19
ATOM     19  O   UNL     1      -2.768   7.230  26.333  0.00  0.00    -0.343 OA
ATOM     20  C   UNL     1      -3.380   6.519  27.439  0.00  0.00    +0.198 C 
ENDBRANCH   7  19
BRANCH   9  21
ATOM     21  O   UNL     1      -6.439  10.281  27.160  0.00  0.00    -0.390 OA
ATOM     22  H   UNL     1      -7.067   9.901  26.542  0.00  0.00    +0.210 HD
ENDBRANCH   9  21
ENDBRANCH   4   5
BRANCH   4  23
ATOM     23  O   UNL     1      -3.117   9.318  22.346  0.00  0.00    -0.387 OA
ATOM     24  H   UNL     1      -3.283   8.538  22.881  0.00  0.00    +0.210 HD
ENDBRANCH   4  23
ENDBRANCH   1   4
BRANCH   1  25
ATOM     25  C   UNL     1      -3.634  12.401  21.384  0.00  0.00    +0.141 C 
BRANCH  25  28
ATOM     26  C   UNL     1      -5.646  11.651  20.161  0.00  0.00    +0.401 C 
ATOM     27  O   UNL     1      -6.286  12.680  20.393  0.00  0.00    -0.226 OA
ATOM     28  N   UNL     1      -4.402  11.434  20.591  0.00  0.00    -0.279 N 
ATOM     29  H   UNL     1      -3.964  10.554  20.358  0.00  0.00    +0.152 HD
BRANCH  26  30
ATOM     30  O   UNL     1      -6.256  10.612  19.391  0.00  0.00    -0.444 OA
BRANCH  30  31
ATOM     31  C   UNL     1      -6.905  11.181  18.251  0.00  0.00    +0.292 C 
BRANCH  31  33
ATOM     32  N   UNL     1      -6.120  12.427  16.256  0.00  0.00    -0.131 NA
ATOM     33  C   UNL     1      -5.926  11.431  17.176  0.00  0.00    +0.120 A 
ATOM     34  C   UNL     1      -4.739  10.790  16.899  0.00  0.00    +0.139 A 
ATOM     35  N   UNL     1      -4.232  11.481  15.839  0.00  0.00    -0.230 N 
ATOM     36  N   UNL     1      -5.086  12.434  15.426  0.00  0.00    -0.064 NA
BRANCH  35  37
ATOM     37  C   UNL     1      -3.004  11.254  15.118  0.00  0.00    +0.316 C 
BRANCH  37  38
ATOM     38  S   UNL     1      -3.093   9.901  13.974  0.00  0.00    +0.017 S 
ATOM     39  O   UNL     1      -4.477   9.604  13.666  0.00  0.00    -0.168 OA
ATOM     40  O   UNL     1      -2.130  10.148  12.915  0.00  0.00    -0.168 OA
BRANCH  38  41
ATOM     41  C   UNL     1      -2.493   8.506  14.904  0.00  0.00    +0.090 A 
ATOM     42  C   UNL     1      -1.114   8.312  15.032  0.00  0.00    +0.027 A 
ATOM     43  C   UNL     1      -0.640   7.236  15.781  0.00  0.00    +0.002 A 
ATOM     44  C   UNL     1      -1.538   6.373  16.412  0.00  0.00    +0.000 A 
ATOM     45  C   UNL     1      -2.913   6.583  16.297  0.00  0.00    +0.002 A 
ATOM     46  C   UNL     1      -3.398   7.651  15.541  0.00  0.00    +0.027 A 
ENDBRANCH  38  41
ENDBRANCH  37  38
ENDBRANCH  35  37
ENDBRANCH  31  33
ENDBRANCH  30  31
ENDBRANCH  26  30
ENDBRANCH  25  28
ENDBRANCH   1  25
TORSDOF 16
