REMARK VINA RESULT:    -3.998      3.698      8.084
REMARK INTER + INTRA:         -12.703
REMARK INTER:                  -8.970
REMARK INTRA:                  -3.732
REMARK UNBOUND:                -4.498
REMARK  Name = lig_assembled_33.pdb
REMARK  22 active torsions:
REMARK  status: ('A' for Active; 'I' for Inactive)
REMARK    1  A    between atoms: _2  and  _9
REMARK    2  A    between atoms: _4  and  _20
REMARK    3  A    between atoms: _5  and  _13
REMARK    4  A    between atoms: _5  and  _14
REMARK    5  A    between atoms: _6  and  _7
REMARK    6  A    between atoms: _6  and  _20
REMARK    7  A    between atoms: _9  and  _10
REMARK    8  A    between atoms: _10  and  _11
REMARK    9  A    between atoms: _11  and  _12
REMARK   10  A    between atoms: _12  and  _13
REMARK   11  A    between atoms: _16  and  _36
REMARK   12  A    between atoms: _18  and  _24
REMARK   13  A    between atoms: _19  and  _23
REMARK   14  A    between atoms: _23  and  _24
REMARK   15  A    between atoms: _26  and  _27
REMARK   16  A    between atoms: _28  and  _29
REMARK   17  A    between atoms: _30  and  _32
REMARK   18  A    between atoms: _32  and  _33
REMARK   19  A    between atoms: _32  and  _34
REMARK   20  A    between atoms: _34  and  _35
REMARK   21  A    between atoms: _34  and  _36
REMARK   22  A    between atoms: _37  and  _39
REMARK                            x       y       z     vdW  Elec       q    Type
REMARK                         _______ _______ _______ _____ _____    ______ ____
ROOT
ATOM      1  C   UNL     1      -3.737  13.614  22.285  0.00  0.00    +0.163 C 
ENDROOT
BRANCH   1   2
ATOM      2  O   UNL     1      -2.894  14.775  22.209  0.00  0.00    -0.388 OA
ATOM      3  H   UNL     1      -2.347  14.827  22.997  0.00  0.00    +0.210 HD
ENDBRANCH   1   2
BRANCH   1   4
ATOM      4  C   UNL     1      -5.062  13.847  21.540  0.00  0.00    +0.175 C 
BRANCH   4   5
ATOM      5  C   UNL     1      -5.869  15.006  22.142  0.00  0.00    +0.176 C 
ATOM      6  O   UNL     1      -5.179  16.245  21.821  0.00  0.00    -0.332 OA
ATOM      7  C   UNL     1      -5.864  17.476  22.228  0.00  0.00    +0.277 C 
ATOM      8  C   UNL     1      -6.193  17.437  23.741  0.00  0.00    +0.110 C 
ATOM      9  C   UNL     1      -6.899  16.123  24.137  0.00  0.00    +0.143 C 
ATOM     10  C   UNL     1      -6.102  14.907  23.661  0.00  0.00    +0.133 C 
BRANCH  10  11
ATOM     11  N   UNL     1      -6.828  13.664  23.967  0.00  0.00    -0.308 N 
ATOM     12  H   UNL     1      -7.704  13.500  23.491  0.00  0.00    +0.149 HD
ATOM     13  C   UNL     1      -6.404  12.739  24.833  0.00  0.00    +0.210 C 
ATOM     14  C   UNL     1      -5.079  13.031  25.561  0.00  0.00    +0.109 C 
ATOM     15  O   UNL     1      -7.026  11.700  25.058  0.00  0.00    -0.276 OA
ENDBRANCH  10  11
BRANCH   7  16
ATOM     16  C   UNL     1      -7.165  17.670  21.423  0.00  0.00    +0.414 C 
ATOM     17  O   UNL     1      -8.153  18.178  21.953  0.00  0.00    -0.240 OA
ATOM     18  O   UNL     1      -7.228  17.319  20.244  0.00  0.00    -0.240 OA
ENDBRANCH   7  16
BRANCH   9  19
ATOM     19  O   UNL     1      -7.046  16.064  25.556  0.00  0.00    -0.390 OA
ATOM     20  H   UNL     1      -6.389  15.467  25.922  0.00  0.00    +0.210 HD
ENDBRANCH   9  19
BRANCH   7  21
ATOM     21  O   UNL     1      -4.968  18.590  21.984  0.00  0.00    -0.343 OA
ATOM     22  C   UNL     1      -3.776  18.262  21.225  0.00  0.00    +0.198 C 
ENDBRANCH   7  21
ENDBRANCH   4   5
BRANCH   4  23
ATOM     23  O   UNL     1      -5.851  12.640  21.540  0.00  0.00    -0.387 OA
ATOM     24  H   UNL     1      -5.999  12.353  20.636  0.00  0.00    +0.210 HD
ENDBRANCH   4  23
ENDBRANCH   1   4
BRANCH   1  25
ATOM     25  C   UNL     1      -3.020  12.408  21.687  0.00  0.00    +0.141 C 
BRANCH  25  28
ATOM     26  C   UNL     1      -3.661  10.075  22.191  0.00  0.00    +0.401 C 
ATOM     27  O   UNL     1      -4.167   9.876  21.084  0.00  0.00    -0.226 OA
ATOM     28  N   UNL     1      -3.107  11.231  22.560  0.00  0.00    -0.279 N 
ATOM     29  H   UNL     1      -2.726  11.301  23.493  0.00  0.00    +0.152 HD
BRANCH  26  30
ATOM     30  O   UNL     1      -3.659   9.019  23.154  0.00  0.00    -0.444 OA
BRANCH  30  31
ATOM     31  C   UNL     1      -4.291   9.467  24.356  0.00  0.00    +0.292 C 
BRANCH  31  33
ATOM     32  N   UNL     1      -2.217  10.108  25.542  0.00  0.00    -0.131 NA
ATOM     33  C   UNL     1      -3.363   9.359  25.497  0.00  0.00    +0.120 A 
ATOM     34  C   UNL     1      -3.432   8.572  26.627  0.00  0.00    +0.137 A 
ATOM     35  N   UNL     1      -2.305   8.898  27.319  0.00  0.00    -0.251 N 
ATOM     36  N   UNL     1      -1.569   9.807  26.658  0.00  0.00    -0.065 NA
BRANCH  35  37
ATOM     37  C   UNL     1      -1.857   8.382  28.597  0.00  0.00    +0.145 C 
BRANCH  37  38
ATOM     38  C   UNL     1      -2.946   8.467  29.664  0.00  0.00    +0.023 C 
BRANCH  38  39
ATOM     39  C   UNL     1      -2.714   9.613  30.652  0.00  0.00    +0.002 C 
BRANCH  39  40
ATOM     40  C   UNL     1      -3.971  10.483  30.743  0.00  0.00    +0.011 C 
BRANCH  40  41
ATOM     41  C   UNL     1      -4.531  10.859  29.374  0.00  0.00    +0.120 C 
BRANCH  41  42
ATOM     42  C   UNL     1      -3.972  12.182  28.897  0.00  0.00    +0.305 C 
ATOM     43  O   UNL     1      -4.405  13.282  29.198  0.00  0.00    -0.251 OA
BRANCH  42  44
ATOM     44  O   UNL     1      -2.905  12.025  28.080  0.00  0.00    -0.481 OA
ATOM     45  H   UNL     1      -3.011  11.311  27.425  0.00  0.00    +0.295 HD
ENDBRANCH  42  44
ENDBRANCH  41  42
ENDBRANCH  40  41
ENDBRANCH  39  40
ENDBRANCH  38  39
ENDBRANCH  37  38
ENDBRANCH  35  37
ENDBRANCH  31  33
ENDBRANCH  30  31
ENDBRANCH  26  30
ENDBRANCH  25  28
ENDBRANCH   1  25
TORSDOF 20
