REMARK VINA RESULT:    -3.999      2.683      7.290
REMARK INTER + INTRA:         -11.316
REMARK INTER:                  -7.620
REMARK INTRA:                  -3.696
REMARK UNBOUND:                -3.458
REMARK  Name = lig_assembled_43.pdb
REMARK  20 active torsions:
REMARK  status: ('A' for Active; 'I' for Inactive)
REMARK    1  A    between atoms: _2  and  _9
REMARK    2  A    between atoms: _4  and  _18
REMARK    3  A    between atoms: _6  and  _7
REMARK    4  A    between atoms: _6  and  _18
REMARK    5  A    between atoms: _9  and  _10
REMARK    6  A    between atoms: _10  and  _11
REMARK    7  A    between atoms: _11  and  _12
REMARK    8  A    between atoms: _12  and  _13
REMARK    9  A    between atoms: _14  and  _34
REMARK   10  A    between atoms: _16  and  _22
REMARK   11  A    between atoms: _17  and  _21
REMARK   12  A    between atoms: _21  and  _22
REMARK   13  A    between atoms: _24  and  _25
REMARK   14  A    between atoms: _26  and  _27
REMARK   15  A    between atoms: _28  and  _30
REMARK   16  A    between atoms: _30  and  _31
REMARK   17  A    between atoms: _30  and  _32
REMARK   18  A    between atoms: _32  and  _33
REMARK   19  A    between atoms: _32  and  _34
REMARK   20  A    between atoms: _35  and  _37
REMARK                            x       y       z     vdW  Elec       q    Type
REMARK                         _______ _______ _______ _____ _____    ______ ____
ROOT
ATOM      1  C   UNL     1      -2.443   9.681  26.938  0.00  0.00    +0.163 C 
ENDROOT
BRANCH   1   2
ATOM      2  O   UNL     1      -2.995   9.151  25.722  0.00  0.00    -0.388 OA
ATOM      3  H   UNL     1      -3.500   9.835  25.275  0.00  0.00    +0.210 HD
ENDBRANCH   1   2
BRANCH   1   4
ATOM      4  C   UNL     1      -3.488  10.512  27.701  0.00  0.00    +0.175 C 
BRANCH   4   5
ATOM      5  C   UNL     1      -4.427  11.272  26.753  0.00  0.00    +0.176 C 
ATOM      6  O   UNL     1      -3.615  11.883  25.714  0.00  0.00    -0.332 OA
ATOM      7  C   UNL     1      -4.355  12.568  24.650  0.00  0.00    +0.277 C 
ATOM      8  C   UNL     1      -5.316  13.622  25.252  0.00  0.00    +0.110 C 
ATOM      9  C   UNL     1      -6.180  13.026  26.383  0.00  0.00    +0.143 C 
ATOM     10  C   UNL     1      -5.308  12.336  27.433  0.00  0.00    +0.133 C 
BRANCH  10  11
ATOM     11  N   UNL     1      -6.146  11.698  28.460  0.00  0.00    -0.308 N 
ATOM     12  H   UNL     1      -6.754  10.944  28.171  0.00  0.00    +0.149 HD
ATOM     13  C   UNL     1      -6.157  12.049  29.749  0.00  0.00    +0.210 C 
ATOM     14  C   UNL     1      -5.238  13.218  30.152  0.00  0.00    +0.109 C 
ATOM     15  O   UNL     1      -6.859  11.486  30.589  0.00  0.00    -0.276 OA
ENDBRANCH  10  11
BRANCH   7  16
ATOM     16  C   UNL     1      -5.162  11.557  23.807  0.00  0.00    +0.414 C 
ATOM     17  O   UNL     1      -6.303  11.829  23.438  0.00  0.00    -0.240 OA
ATOM     18  O   UNL     1      -4.671  10.471  23.498  0.00  0.00    -0.240 OA
ENDBRANCH   7  16
BRANCH   9  19
ATOM     19  O   UNL     1      -6.937  14.063  27.008  0.00  0.00    -0.390 OA
ATOM     20  H   UNL     1      -7.867  13.824  27.010  0.00  0.00    +0.210 HD
ENDBRANCH   9  19
BRANCH   7  21
ATOM     21  O   UNL     1      -3.396  13.253  23.804  0.00  0.00    -0.343 OA
ATOM     22  C   UNL     1      -3.959  14.276  22.944  0.00  0.00    +0.198 C 
ENDBRANCH   7  21
ENDBRANCH   4   5
BRANCH   4  23
ATOM     23  O   UNL     1      -2.833  11.435  28.595  0.00  0.00    -0.387 OA
ATOM     24  H   UNL     1      -3.396  12.200  28.734  0.00  0.00    +0.210 HD
ENDBRANCH   4  23
ENDBRANCH   1   4
BRANCH   1  25
ATOM     25  C   UNL     1      -1.949   8.544  27.826  0.00  0.00    +0.141 C 
BRANCH  25  28
ATOM     26  C   UNL     1      -2.836   7.770  29.999  0.00  0.00    +0.401 C 
ATOM     27  O   UNL     1      -3.038   6.617  29.613  0.00  0.00    -0.226 OA
ATOM     28  N   UNL     1      -2.336   8.737  29.229  0.00  0.00    -0.279 N 
ATOM     29  H   UNL     1      -2.215   9.655  29.634  0.00  0.00    +0.152 HD
BRANCH  26  30
ATOM     30  O   UNL     1      -3.154   8.116  31.350  0.00  0.00    -0.444 OA
BRANCH  30  31
ATOM     31  C   UNL     1      -4.129   9.162  31.358  0.00  0.00    +0.292 C 
BRANCH  31  33
ATOM     32  N   UNL     1      -2.404  10.922  31.593  0.00  0.00    -0.131 NA
ATOM     33  C   UNL     1      -3.585  10.366  32.011  0.00  0.00    +0.120 A 
ATOM     34  C   UNL     1      -4.082  11.104  33.062  0.00  0.00    +0.137 A 
ATOM     35  N   UNL     1      -3.155  12.088  33.237  0.00  0.00    -0.251 N 
ATOM     36  N   UNL     1      -2.150  11.978  32.354  0.00  0.00    -0.065 NA
BRANCH  35  37
ATOM     37  C   UNL     1      -3.144  13.136  34.235  0.00  0.00    +0.145 C 
BRANCH  37  38
ATOM     38  C   UNL     1      -2.060  14.170  33.948  0.00  0.00    +0.024 C 
BRANCH  38  39
ATOM     39  C   UNL     1      -2.631  15.584  33.823  0.00  0.00    +0.006 C 
BRANCH  39  40
ATOM     40  C   UNL     1      -3.944  15.564  33.036  0.00  0.00    +0.026 C 
BRANCH  40  41
ATOM     41  C   UNL     1      -3.846  16.345  31.759  0.00  0.00    -0.034 C 
ATOM     42  C   UNL     1      -4.906  16.734  31.039  0.00  0.00    +0.004 C 
ENDBRANCH  40  41
ENDBRANCH  39  40
ENDBRANCH  38  39
ENDBRANCH  37  38
ENDBRANCH  35  37
ENDBRANCH  31  33
ENDBRANCH  30  31
ENDBRANCH  26  30
ENDBRANCH  25  28
ENDBRANCH   1  25
TORSDOF 18
