REMARK VINA RESULT:    -4.782      2.867      4.838
REMARK INTER + INTRA:         -13.337
REMARK INTER:                 -10.226
REMARK INTRA:                  -3.111
REMARK UNBOUND:                -4.083
REMARK  Name = lig_assembled_83.pdb
REMARK  20 active torsions:
REMARK  status: ('A' for Active; 'I' for Inactive)
REMARK    1  A    between atoms: _2  and  _12
REMARK    2  A    between atoms: _3  and  _14
REMARK    3  A    between atoms: _7  and  _24
REMARK    4  A    between atoms: _9  and  _10
REMARK    5  A    between atoms: _9  and  _24
REMARK    6  A    between atoms: _12  and  _13
REMARK    7  A    between atoms: _13  and  _14
REMARK    8  A    between atoms: _13  and  _18
REMARK    9  A    between atoms: _20  and  _40
REMARK   10  A    between atoms: _22  and  _28
REMARK   11  A    between atoms: _23  and  _27
REMARK   12  A    between atoms: _27  and  _28
REMARK   13  A    between atoms: _30  and  _31
REMARK   14  A    between atoms: _32  and  _33
REMARK   15  A    between atoms: _34  and  _36
REMARK   16  A    between atoms: _36  and  _37
REMARK   17  A    between atoms: _36  and  _38
REMARK   18  A    between atoms: _38  and  _39
REMARK   19  A    between atoms: _38  and  _40
REMARK   20  A    between atoms: _41  and  _43
REMARK                            x       y       z     vdW  Elec       q    Type
REMARK                         _______ _______ _______ _____ _____    ______ ____
ROOT
ATOM      1  C   UNL     1      -6.940   8.925  21.818  0.00  0.00    +0.141 C 
ENDROOT
BRANCH   1   4
ATOM      2  C   UNL     1      -6.218   9.658  19.571  0.00  0.00    +0.401 C 
ATOM      3  O   UNL     1      -5.521   8.661  19.367  0.00  0.00    -0.226 OA
ATOM      4  N   UNL     1      -6.911   9.866  20.692  0.00  0.00    -0.279 N 
ATOM      5  H   UNL     1      -7.446  10.720  20.770  0.00  0.00    +0.152 HD
BRANCH   2   6
ATOM      6  O   UNL     1      -6.299  10.667  18.562  0.00  0.00    -0.444 OA
BRANCH   6   7
ATOM      7  C   UNL     1      -6.724  10.077  17.330  0.00  0.00    +0.292 C 
BRANCH   7   9
ATOM      8  N   UNL     1      -4.392  10.347  16.523  0.00  0.00    -0.131 NA
ATOM      9  C   UNL     1      -5.739  10.337  16.265  0.00  0.00    +0.120 A 
ATOM     10  C   UNL     1      -5.939  10.598  14.929  0.00  0.00    +0.137 A 
ATOM     11  N   UNL     1      -4.681  10.739  14.430  0.00  0.00    -0.249 N 
ATOM     12  N   UNL     1      -3.751  10.601  15.389  0.00  0.00    -0.065 NA
BRANCH  11  13
ATOM     13  C   UNL     1      -4.297  11.044  13.068  0.00  0.00    +0.178 C 
BRANCH  13  14
ATOM     14  C   UNL     1      -2.990  11.840  13.008  0.00  0.00    +0.156 C 
BRANCH  14  15
ATOM     15  O   UNL     1      -1.901  10.966  12.690  0.00  0.00    -0.388 OA
ATOM     16  H   UNL     1      -1.464  11.267  11.869  0.00  0.00    +0.210 HD
ENDBRANCH  14  15
BRANCH  14  17
ATOM     17  C   UNL     1      -3.092  12.965  11.966  0.00  0.00    +0.162 C 
BRANCH  17  18
ATOM     18  N   UNL     1      -2.304  14.133  12.326  0.00  0.00    -0.269 N 
ATOM     19  C   UNL     1      -2.788  15.166  13.095  0.00  0.00    +0.113 A 
ATOM     20  C   UNL     1      -1.741  16.047  13.232  0.00  0.00    +0.137 A 
ATOM     21  N   UNL     1      -0.641  15.603  12.550  0.00  0.00    -0.172 NA
ATOM     22  C   UNL     1      -1.002  14.449  12.020  0.00  0.00    +0.450 A 
ATOM     23  N   UNL     1      -0.102  13.646  11.222  0.00  0.00    +0.120 N 
ATOM     24  O   UNL     1      -0.536  12.575  10.768  0.00  0.00    +0.045 OA
ATOM     25  O   UNL     1       1.038  14.085  11.033  0.00  0.00    -0.573 OA
ENDBRANCH  17  18
ENDBRANCH  14  17
ENDBRANCH  13  14
ENDBRANCH  11  13
ENDBRANCH   7   9
ENDBRANCH   6   7
ENDBRANCH   2   6
ENDBRANCH   1   4
BRANCH   1  26
ATOM     26  C   UNL     1      -6.216   9.478  23.041  0.00  0.00    +0.163 C 
BRANCH  26  27
ATOM     27  O   UNL     1      -7.049   9.352  24.205  0.00  0.00    -0.388 OA
ATOM     28  H   UNL     1      -6.611   9.754  24.958  0.00  0.00    +0.210 HD
ENDBRANCH  26  27
BRANCH  26  29
ATOM     29  C   UNL     1      -4.886   8.730  23.232  0.00  0.00    +0.175 C 
BRANCH  29  30
ATOM     30  C   UNL     1      -3.879   9.544  24.058  0.00  0.00    +0.176 C 
ATOM     31  O   UNL     1      -4.277   9.464  25.454  0.00  0.00    -0.332 OA
ATOM     32  C   UNL     1      -3.365  10.100  26.411  0.00  0.00    +0.277 C 
ATOM     33  C   UNL     1      -3.117  11.578  26.021  0.00  0.00    +0.110 C 
ATOM     34  C   UNL     1      -2.722  11.717  24.536  0.00  0.00    +0.143 C 
ATOM     35  C   UNL     1      -3.736  11.017  23.631  0.00  0.00    +0.133 C 
BRANCH  35  36
ATOM     36  N   UNL     1      -3.304  11.082  22.226  0.00  0.00    -0.308 N 
ATOM     37  H   UNL     1      -2.523  10.505  21.946  0.00  0.00    +0.149 HD
ATOM     38  C   UNL     1      -3.876  11.853  21.297  0.00  0.00    +0.210 C 
ATOM     39  C   UNL     1      -5.046  12.739  21.761  0.00  0.00    +0.109 C 
ATOM     40  O   UNL     1      -3.501  11.875  20.124  0.00  0.00    -0.276 OA
ENDBRANCH  35  36
BRANCH  32  41
ATOM     41  C   UNL     1      -2.019   9.348  26.466  0.00  0.00    +0.414 C 
ATOM     42  O   UNL     1      -1.996   8.118  26.475  0.00  0.00    -0.240 OA
ATOM     43  O   UNL     1      -0.957   9.971  26.500  0.00  0.00    -0.240 OA
ENDBRANCH  32  41
BRANCH  32  44
ATOM     44  O   UNL     1      -3.994  10.071  27.718  0.00  0.00    -0.343 OA
ATOM     45  C   UNL     1      -3.696  11.208  28.566  0.00  0.00    +0.198 C 
ENDBRANCH  32  44
BRANCH  34  46
ATOM     46  O   UNL     1      -2.651  13.099  24.183  0.00  0.00    -0.390 OA
ATOM     47  H   UNL     1      -3.418  13.559  24.534  0.00  0.00    +0.210 HD
ENDBRANCH  34  46
ENDBRANCH  29  30
BRANCH  29  48
ATOM     48  O   UNL     1      -4.318   8.390  21.952  0.00  0.00    -0.387 OA
ATOM     49  H   UNL     1      -4.769   8.882  21.261  0.00  0.00    +0.210 HD
ENDBRANCH  29  48
ENDBRANCH  26  29
ENDBRANCH   1  26
TORSDOF 18
