REMARK VINA RESULT:    -4.552      2.839      5.240
REMARK INTER + INTRA:         -11.824
REMARK INTER:                  -9.193
REMARK INTRA:                  -2.631
REMARK UNBOUND:                -3.679
REMARK  Name = lig_assembled_0.pdb
REMARK  17 active torsions:
REMARK  status: ('A' for Active; 'I' for Inactive)
REMARK    1  A    between atoms: _2  and  _10
REMARK    2  A    between atoms: _5  and  _21
REMARK    3  A    between atoms: _7  and  _8
REMARK    4  A    between atoms: _7  and  _21
REMARK    5  A    between atoms: _11  and  _12
REMARK    6  A    between atoms: _17  and  _37
REMARK    7  A    between atoms: _19  and  _25
REMARK    8  A    between atoms: _20  and  _24
REMARK    9  A    between atoms: _24  and  _25
REMARK   10  A    between atoms: _27  and  _28
REMARK   11  A    between atoms: _29  and  _30
REMARK   12  A    between atoms: _31  and  _33
REMARK   13  A    between atoms: _33  and  _34
REMARK   14  A    between atoms: _33  and  _35
REMARK   15  A    between atoms: _35  and  _36
REMARK   16  A    between atoms: _35  and  _37
REMARK   17  A    between atoms: _38  and  _40
REMARK                            x       y       z     vdW  Elec       q    Type
REMARK                         _______ _______ _______ _____ _____    ______ ____
ROOT
ATOM      1  C   UNL     1      -4.292   8.959  23.807  0.00  0.00    +0.163 C 
ENDROOT
BRANCH   1   2
ATOM      2  O   UNL     1      -3.749   8.228  22.696  0.00  0.00    -0.388 OA
ATOM      3  H   UNL     1      -3.296   8.833  22.104  0.00  0.00    +0.210 HD
ENDBRANCH   1   2
BRANCH   1   4
ATOM      4  C   UNL     1      -4.399   8.050  25.027  0.00  0.00    +0.141 C 
BRANCH   4   7
ATOM      5  C   UNL     1      -2.760   8.695  26.761  0.00  0.00    +0.401 C 
ATOM      6  O   UNL     1      -1.831   8.063  26.251  0.00  0.00    -0.226 OA
ATOM      7  N   UNL     1      -3.995   8.739  26.259  0.00  0.00    -0.279 N 
ATOM      8  H   UNL     1      -4.692   9.277  26.755  0.00  0.00    +0.152 HD
BRANCH   5   9
ATOM      9  O   UNL     1      -2.523   9.428  27.965  0.00  0.00    -0.444 OA
BRANCH   9  10
ATOM     10  C   UNL     1      -3.545   9.124  28.919  0.00  0.00    +0.292 C 
BRANCH  10  12
ATOM     11  N   UNL     1      -5.066  10.320  30.450  0.00  0.00    -0.131 NA
ATOM     12  C   UNL     1      -4.089  10.366  29.500  0.00  0.00    +0.121 A 
ATOM     13  C   UNL     1      -3.755  11.679  29.259  0.00  0.00    +0.143 A 
ATOM     14  N   UNL     1      -4.628  12.418  30.024  0.00  0.00    -0.219 N 
ATOM     15  N   UNL     1      -5.351  11.564  30.801  0.00  0.00    -0.060 NA
BRANCH  14  16
ATOM     16  C   UNL     1      -4.767  13.826  30.180  0.00  0.00    +0.079 A 
ATOM     17  C   UNL     1      -4.030  14.612  31.090  0.00  0.00    +0.062 A 
ATOM     18  C   UNL     1      -4.301  15.995  31.168  0.00  0.00    +0.015 A 
ATOM     19  C   UNL     1      -5.285  16.590  30.379  0.00  0.00    +0.001 A 
ATOM     20  C   UNL     1      -6.000  15.819  29.474  0.00  0.00    +0.002 A 
ATOM     21  C   UNL     1      -5.737  14.454  29.365  0.00  0.00    +0.028 A 
BRANCH  17  22
ATOM     22  C   UNL     1      -2.847  14.120  31.850  0.00  0.00    +0.244 C 
ATOM     23  O   UNL     1      -2.924  13.755  33.012  0.00  0.00    -0.270 OA
ATOM     24  N   UNL     1      -1.651  14.049  31.186  0.00  0.00    -0.325 N 
ATOM     25  H   UNL     1      -0.864  13.665  31.695  0.00  0.00    +0.145 HD
ATOM     26  H   UNL     1      -1.508  14.317  30.224  0.00  0.00    +0.145 HD
ENDBRANCH  17  22
ENDBRANCH  14  16
ENDBRANCH  10  12
ENDBRANCH   9  10
ENDBRANCH   5   9
ENDBRANCH   4   7
ENDBRANCH   1   4
BRANCH   1  27
ATOM     27  C   UNL     1      -5.681   9.526  23.466  0.00  0.00    +0.175 C 
BRANCH  27  28
ATOM     28  C   UNL     1      -5.596  10.726  22.510  0.00  0.00    +0.176 C 
ATOM     29  O   UNL     1      -5.206  10.228  21.201  0.00  0.00    -0.332 OA
ATOM     30  C   UNL     1      -5.176  11.224  20.126  0.00  0.00    +0.277 C 
ATOM     31  C   UNL     1      -4.274  12.420  20.522  0.00  0.00    +0.110 C 
ATOM     32  C   UNL     1      -4.631  12.963  21.921  0.00  0.00    +0.143 C 
ATOM     33  C   UNL     1      -4.636  11.842  22.961  0.00  0.00    +0.133 C 
BRANCH  33  34
ATOM     34  N   UNL     1      -5.061  12.357  24.272  0.00  0.00    -0.308 N 
ATOM     35  H   UNL     1      -6.032  12.614  24.385  0.00  0.00    +0.149 HD
ATOM     36  C   UNL     1      -4.249  12.505  25.322  0.00  0.00    +0.210 C 
ATOM     37  C   UNL     1      -2.771  12.128  25.109  0.00  0.00    +0.109 C 
ATOM     38  O   UNL     1      -4.637  12.925  26.413  0.00  0.00    -0.276 OA
ENDBRANCH  33  34
BRANCH  30  39
ATOM     39  C   UNL     1      -6.598  11.733  19.813  0.00  0.00    +0.414 C 
ATOM     40  O   UNL     1      -6.826  12.941  19.753  0.00  0.00    -0.240 OA
ATOM     41  O   UNL     1      -7.518  10.937  19.621  0.00  0.00    -0.240 OA
ENDBRANCH  30  39
BRANCH  32  42
ATOM     42  O   UNL     1      -3.683  13.959  22.307  0.00  0.00    -0.390 OA
ATOM     43  H   UNL     1      -3.385  13.787  23.204  0.00  0.00    +0.210 HD
ENDBRANCH  32  42
BRANCH  30  44
ATOM     44  O   UNL     1      -4.611  10.596  18.947  0.00  0.00    -0.343 OA
ATOM     45  C   UNL     1      -4.546  11.445  17.773  0.00  0.00    +0.198 C 
ENDBRANCH  30  44
ENDBRANCH  27  28
BRANCH  27  46
ATOM     46  O   UNL     1      -6.375   9.901  24.673  0.00  0.00    -0.387 OA
ATOM     47  H   UNL     1      -6.320  10.852  24.791  0.00  0.00    +0.210 HD
ENDBRANCH  27  46
ENDBRANCH   1  27
TORSDOF 15
