REMARK VINA RESULT:    -5.037      2.438      5.580
REMARK INTER + INTRA:         -11.098
REMARK INTER:                  -8.346
REMARK INTRA:                  -2.752
REMARK UNBOUND:                -2.381
REMARK  Name = lig_assembled_7.pdb
REMARK  19 active torsions:
REMARK  status: ('A' for Active; 'I' for Inactive)
REMARK    1  A    between atoms: _2  and  _9
REMARK    2  A    between atoms: _4  and  _21
REMARK    3  A    between atoms: _5  and  _16
REMARK    4  A    between atoms: _6  and  _7
REMARK    5  A    between atoms: _6  and  _21
REMARK    6  A    between atoms: _10  and  _11
REMARK    7  A    between atoms: _13  and  _14
REMARK    8  A    between atoms: _17  and  _37
REMARK    9  A    between atoms: _19  and  _25
REMARK   10  A    between atoms: _20  and  _24
REMARK   11  A    between atoms: _24  and  _25
REMARK   12  A    between atoms: _27  and  _28
REMARK   13  A    between atoms: _29  and  _30
REMARK   14  A    between atoms: _31  and  _33
REMARK   15  A    between atoms: _33  and  _34
REMARK   16  A    between atoms: _33  and  _35
REMARK   17  A    between atoms: _35  and  _36
REMARK   18  A    between atoms: _35  and  _37
REMARK   19  A    between atoms: _38  and  _40
REMARK                            x       y       z     vdW  Elec       q    Type
REMARK                         _______ _______ _______ _____ _____    ______ ____
ROOT
ATOM      1  C   UNL     1      -4.066   9.011  29.237  0.00  0.00    +0.163 C 
ENDROOT
BRANCH   1   2
ATOM      2  O   UNL     1      -4.773   8.792  30.469  0.00  0.00    -0.388 OA
ATOM      3  H   UNL     1      -4.715   9.579  31.016  0.00  0.00    +0.210 HD
ENDBRANCH   1   2
BRANCH   1   4
ATOM      4  C   UNL     1      -3.609   7.679  28.653  0.00  0.00    +0.141 C 
BRANCH   4   7
ATOM      5  C   UNL     1      -2.959   7.629  26.270  0.00  0.00    +0.401 C 
ATOM      6  O   UNL     1      -1.755   7.769  26.498  0.00  0.00    -0.226 OA
ATOM      7  N   UNL     1      -3.897   7.583  27.217  0.00  0.00    -0.279 N 
ATOM      8  H   UNL     1      -4.859   7.476  26.930  0.00  0.00    +0.152 HD
BRANCH   5   9
ATOM      9  O   UNL     1      -3.400   7.513  24.914  0.00  0.00    -0.444 OA
BRANCH   9  10
ATOM     10  C   UNL     1      -4.817   7.698  24.855  0.00  0.00    +0.292 C 
BRANCH  10  12
ATOM     11  N   UNL     1      -6.410   9.118  23.621  0.00  0.00    -0.131 NA
ATOM     12  C   UNL     1      -5.173   8.560  23.714  0.00  0.00    +0.121 A 
ATOM     13  C   UNL     1      -4.424   8.955  22.622  0.00  0.00    +0.143 A 
ATOM     14  N   UNL     1      -5.274   9.725  21.855  0.00  0.00    -0.219 N 
ATOM     15  N   UNL     1      -6.454   9.841  22.514  0.00  0.00    -0.060 NA
BRANCH  14  16
ATOM     16  C   UNL     1      -5.046  10.349  20.585  0.00  0.00    +0.073 A 
ATOM     17  C   UNL     1      -5.349   9.631  19.389  0.00  0.00    -0.024 A 
ATOM     18  C   UNL     1      -5.129  10.237  18.133  0.00  0.00    +0.008 A 
ATOM     19  C   UNL     1      -4.629  11.533  18.028  0.00  0.00    -0.050 A 
ATOM     20  C   UNL     1      -4.409  12.148  16.678  0.00  0.00    +0.044 C 
ATOM     21  C   UNL     1      -4.337  12.230  19.197  0.00  0.00    +0.008 A 
ATOM     22  C   UNL     1      -5.953   8.244  19.350  0.00  0.00    +0.046 C 
ATOM     23  C   UNL     1      -4.514  11.660  20.480  0.00  0.00    -0.024 A 
ATOM     24  C   UNL     1      -4.020  12.534  21.604  0.00  0.00    +0.046 C 
ENDBRANCH  14  16
ENDBRANCH  10  12
ENDBRANCH   9  10
ENDBRANCH   5   9
ENDBRANCH   4   7
ENDBRANCH   1   4
BRANCH   1  25
ATOM     25  C   UNL     1      -2.845   9.921  29.458  0.00  0.00    +0.175 C 
BRANCH  25  26
ATOM     26  C   UNL     1      -3.253  11.354  29.832  0.00  0.00    +0.176 C 
ATOM     27  O   UNL     1      -3.643  11.357  31.233  0.00  0.00    -0.332 OA
ATOM     28  C   UNL     1      -3.965  12.671  31.798  0.00  0.00    +0.277 C 
ATOM     29  C   UNL     1      -5.055  13.372  30.950  0.00  0.00    +0.110 C 
ATOM     30  C   UNL     1      -4.699  13.366  29.448  0.00  0.00    +0.143 C 
ATOM     31  C   UNL     1      -4.379  11.950  28.967  0.00  0.00    +0.133 C 
BRANCH  31  32
ATOM     32  N   UNL     1      -3.957  11.969  27.557  0.00  0.00    -0.308 N 
ATOM     33  H   UNL     1      -3.083  12.423  27.332  0.00  0.00    +0.149 HD
ATOM     34  C   UNL     1      -4.655  11.426  26.555  0.00  0.00    +0.210 C 
ATOM     35  C   UNL     1      -5.996  10.765  26.928  0.00  0.00    +0.109 C 
ATOM     36  O   UNL     1      -4.270  11.444  25.386  0.00  0.00    -0.276 OA
ENDBRANCH  31  32
BRANCH  28  37
ATOM     37  C   UNL     1      -2.708  13.562  31.862  0.00  0.00    +0.414 C 
ATOM     38  O   UNL     1      -1.659  13.122  32.330  0.00  0.00    -0.240 OA
ATOM     39  O   UNL     1      -2.743  14.721  31.446  0.00  0.00    -0.240 OA
ENDBRANCH  28  37
BRANCH  30  40
ATOM     40  O   UNL     1      -5.794  13.883  28.692  0.00  0.00    -0.390 OA
ATOM     41  H   UNL     1      -5.722  13.590  27.781  0.00  0.00    +0.210 HD
ENDBRANCH  30  40
BRANCH  28  42
ATOM     42  O   UNL     1      -4.488  12.467  33.136  0.00  0.00    -0.343 OA
ATOM     43  C   UNL     1      -4.976  13.665  33.792  0.00  0.00    +0.198 C 
ENDBRANCH  28  42
ENDBRANCH  25  26
BRANCH  25  44
ATOM     44  O   UNL     1      -2.014   9.933  28.280  0.00  0.00    -0.387 OA
ATOM     45  H   UNL     1      -2.126   9.108  27.801  0.00  0.00    +0.210 HD
ENDBRANCH  25  44
ENDBRANCH   1  25
TORSDOF 14
