REMARK VINA RESULT:    -4.744      2.581     11.960
REMARK INTER + INTRA:         -11.631
REMARK INTER:                  -8.876
REMARK INTRA:                  -2.755
REMARK UNBOUND:                -2.590
REMARK  Name = lig_assembled_29.pdb
REMARK  21 active torsions:
REMARK  status: ('A' for Active; 'I' for Inactive)
REMARK    1  A    between atoms: _2  and  _9
REMARK    2  A    between atoms: _4  and  _23
REMARK    3  A    between atoms: _6  and  _7
REMARK    4  A    between atoms: _6  and  _23
REMARK    5  A    between atoms: _9  and  _10
REMARK    6  A    between atoms: _12  and  _18
REMARK    7  A    between atoms: _13  and  _18
REMARK    8  A    between atoms: _14  and  _17
REMARK    9  A    between atoms: _15  and  _17
REMARK   10  A    between atoms: _19  and  _39
REMARK   11  A    between atoms: _21  and  _27
REMARK   12  A    between atoms: _22  and  _26
REMARK   13  A    between atoms: _26  and  _27
REMARK   14  A    between atoms: _29  and  _30
REMARK   15  A    between atoms: _31  and  _32
REMARK   16  A    between atoms: _33  and  _35
REMARK   17  A    between atoms: _35  and  _36
REMARK   18  A    between atoms: _35  and  _37
REMARK   19  A    between atoms: _37  and  _38
REMARK   20  A    between atoms: _37  and  _39
REMARK   21  A    between atoms: _40  and  _42
REMARK                            x       y       z     vdW  Elec       q    Type
REMARK                         _______ _______ _______ _____ _____    ______ ____
ROOT
ATOM      1  C   UNL     1      -7.036  11.995  15.279  0.00  0.00    +0.163 C 
ENDROOT
BRANCH   1   2
ATOM      2  O   UNL     1      -6.235  13.187  15.332  0.00  0.00    -0.388 OA
ATOM      3  H   UNL     1      -6.640  13.819  15.931  0.00  0.00    +0.210 HD
ENDBRANCH   1   2
BRANCH   1   4
ATOM      4  C   UNL     1      -6.169  10.741  15.481  0.00  0.00    +0.175 C 
BRANCH   4   5
ATOM      5  C   UNL     1      -4.849  10.818  14.700  0.00  0.00    +0.176 C 
ATOM      6  O   UNL     1      -5.132  11.406  13.401  0.00  0.00    -0.332 OA
ATOM      7  C   UNL     1      -3.964  11.657  12.551  0.00  0.00    +0.277 C 
ATOM      8  C   UNL     1      -3.137  10.361  12.370  0.00  0.00    +0.110 C 
ATOM      9  C   UNL     1      -2.839   9.682  13.723  0.00  0.00    +0.143 C 
ATOM     10  C   UNL     1      -4.123   9.471  14.526  0.00  0.00    +0.133 C 
BRANCH  10  11
ATOM     11  N   UNL     1      -3.816   8.904  15.849  0.00  0.00    -0.308 N 
ATOM     12  H   UNL     1      -3.337   9.493  16.515  0.00  0.00    +0.149 HD
ATOM     13  C   UNL     1      -4.129   7.662  16.226  0.00  0.00    +0.210 C 
ATOM     14  C   UNL     1      -4.836   6.780  15.179  0.00  0.00    +0.109 C 
ATOM     15  O   UNL     1      -3.873   7.218  17.346  0.00  0.00    -0.276 OA
ENDBRANCH  10  11
BRANCH   7  16
ATOM     16  C   UNL     1      -3.070  12.758  13.160  0.00  0.00    +0.414 C 
ATOM     17  O   UNL     1      -1.850  12.719  13.010  0.00  0.00    -0.240 OA
ATOM     18  O   UNL     1      -3.570  13.683  13.801  0.00  0.00    -0.240 OA
ENDBRANCH   7  16
BRANCH   7  19
ATOM     19  O   UNL     1      -4.440  12.082  11.247  0.00  0.00    -0.343 OA
ATOM     20  C   UNL     1      -5.807  12.565  11.223  0.00  0.00    +0.198 C 
ENDBRANCH   7  19
BRANCH   9  21
ATOM     21  O   UNL     1      -2.210   8.419  13.501  0.00  0.00    -0.390 OA
ATOM     22  H   UNL     1      -2.464   8.082  12.638  0.00  0.00    +0.210 HD
ENDBRANCH   9  21
ENDBRANCH   4   5
BRANCH   4  23
ATOM     23  O   UNL     1      -6.905   9.562  15.097  0.00  0.00    -0.387 OA
ATOM     24  H   UNL     1      -7.682   9.474  15.653  0.00  0.00    +0.210 HD
ENDBRANCH   4  23
ENDBRANCH   1   4
BRANCH   1  25
ATOM     25  C   UNL     1      -8.118  12.046  16.352  0.00  0.00    +0.141 C 
BRANCH  25  28
ATOM     26  C   UNL     1      -7.915  11.690  18.789  0.00  0.00    +0.401 C 
ATOM     27  O   UNL     1      -8.383  12.793  19.084  0.00  0.00    -0.226 OA
ATOM     28  N   UNL     1      -7.750  11.261  17.538  0.00  0.00    -0.279 N 
ATOM     29  H   UNL     1      -7.349  10.345  17.397  0.00  0.00    +0.152 HD
BRANCH  26  30
ATOM     30  O   UNL     1      -7.515  10.803  19.837  0.00  0.00    -0.444 OA
BRANCH  30  31
ATOM     31  C   UNL     1      -6.205  10.300  19.563  0.00  0.00    +0.292 C 
BRANCH  31  33
ATOM     32  N   UNL     1      -3.902  10.533  20.452  0.00  0.00    -0.131 NA
ATOM     33  C   UNL     1      -5.215  10.924  20.459  0.00  0.00    +0.120 A 
ATOM     34  C   UNL     1      -5.375  11.942  21.373  0.00  0.00    +0.137 A 
ATOM     35  N   UNL     1      -4.108  12.185  21.817  0.00  0.00    -0.247 N 
ATOM     36  N   UNL     1      -3.232  11.306  21.297  0.00  0.00    -0.065 NA
BRANCH  35  37
ATOM     37  C   UNL     1      -3.654  13.254  22.686  0.00  0.00    +0.180 C 
BRANCH  37  38
ATOM     38  C   UNL     1      -3.783  12.856  24.140  0.00  0.00    -0.022 A 
ATOM     39  C   UNL     1      -2.769  12.105  24.759  0.00  0.00    +0.054 A 
ATOM     40  C   UNL     1      -2.837  11.797  26.125  0.00  0.00    +0.162 A 
ATOM     41  C   UNL     1      -3.940  12.239  26.883  0.00  0.00    +0.162 A 
ATOM     42  C   UNL     1      -4.947  12.985  26.265  0.00  0.00    +0.050 A 
ATOM     43  C   UNL     1      -4.870  13.289  24.904  0.00  0.00    +0.009 A 
BRANCH  40  44
ATOM     44  O   UNL     1      -1.880  11.087  26.807  0.00  0.00    -0.491 OA
ATOM     45  C   UNL     1      -1.934   9.669  26.743  0.00  0.00    +0.277 C 
ENDBRANCH  40  44
BRANCH  41  46
ATOM     46  O   UNL     1      -3.938  11.891  28.212  0.00  0.00    -0.491 OA
ATOM     47  C   UNL     1      -4.923  10.968  28.655  0.00  0.00    +0.277 C 
ENDBRANCH  41  46
ENDBRANCH  37  38
ENDBRANCH  35  37
ENDBRANCH  31  33
ENDBRANCH  30  31
ENDBRANCH  26  30
ENDBRANCH  25  28
ENDBRANCH   1  25
TORSDOF 17
