REMARK VINA RESULT:    -4.531      0.944      1.505
REMARK INTER + INTRA:         -12.215
REMARK INTER:                  -9.830
REMARK INTRA:                  -2.385
REMARK UNBOUND:                -3.049
REMARK  Name = lig_assembled_45.pdb
REMARK  24 active torsions:
REMARK  status: ('A' for Active; 'I' for Inactive)
REMARK    1  A    between atoms: _2  and  _10
REMARK    2  A    between atoms: _3  and  _12
REMARK    3  A    between atoms: _3  and  _13
REMARK    4  A    between atoms: _3  and  _14
REMARK    5  A    between atoms: _3  and  _16
REMARK    6  A    between atoms: _5  and  _21
REMARK    7  A    between atoms: _6  and  _16
REMARK    8  A    between atoms: _7  and  _8
REMARK    9  A    between atoms: _7  and  _21
REMARK   10  A    between atoms: _10  and  _11
REMARK   11  A    between atoms: _11  and  _12
REMARK   12  A    between atoms: _14  and  _15
REMARK   13  A    between atoms: _17  and  _37
REMARK   14  A    between atoms: _19  and  _25
REMARK   15  A    between atoms: _20  and  _24
REMARK   16  A    between atoms: _24  and  _25
REMARK   17  A    between atoms: _27  and  _28
REMARK   18  A    between atoms: _29  and  _30
REMARK   19  A    between atoms: _31  and  _33
REMARK   20  A    between atoms: _33  and  _34
REMARK   21  A    between atoms: _33  and  _35
REMARK   22  A    between atoms: _35  and  _36
REMARK   23  A    between atoms: _35  and  _37
REMARK   24  A    between atoms: _38  and  _40
REMARK                            x       y       z     vdW  Elec       q    Type
REMARK                         _______ _______ _______ _____ _____    ______ ____
ROOT
ATOM      1  C   UNL     1      -3.207  11.732  25.110  0.00  0.00    +0.163 C 
ENDROOT
BRANCH   1   2
ATOM      2  O   UNL     1      -2.023  10.918  25.134  0.00  0.00    -0.388 OA
ATOM      3  H   UNL     1      -2.097  10.265  25.834  0.00  0.00    +0.210 HD
ENDBRANCH   1   2
BRANCH   1   4
ATOM      4  C   UNL     1      -3.731  11.981  26.535  0.00  0.00    +0.175 C 
BRANCH   4   5
ATOM      5  C   UNL     1      -3.411  10.814  27.481  0.00  0.00    +0.176 C 
ATOM      6  O   UNL     1      -4.028   9.615  26.937  0.00  0.00    -0.332 OA
ATOM      7  C   UNL     1      -3.738   8.371  27.657  0.00  0.00    +0.277 C 
ATOM      8  C   UNL     1      -4.105   8.515  29.154  0.00  0.00    +0.110 C 
ATOM      9  C   UNL     1      -3.497   9.793  29.769  0.00  0.00    +0.143 C 
ATOM     10  C   UNL     1      -3.858  11.026  28.939  0.00  0.00    +0.133 C 
BRANCH  10  11
ATOM     11  N   UNL     1      -3.203  12.225  29.486  0.00  0.00    -0.308 N 
ATOM     12  H   UNL     1      -2.193  12.258  29.470  0.00  0.00    +0.149 HD
ATOM     13  C   UNL     1      -3.854  13.270  30.001  0.00  0.00    +0.210 C 
ATOM     14  C   UNL     1      -5.392  13.177  30.034  0.00  0.00    +0.109 C 
ATOM     15  O   UNL     1      -3.279  14.268  30.438  0.00  0.00    -0.276 OA
ENDBRANCH  10  11
BRANCH   7  16
ATOM     16  C   UNL     1      -2.248   7.997  27.524  0.00  0.00    +0.414 C 
ATOM     17  O   UNL     1      -1.650   7.487  28.471  0.00  0.00    -0.240 OA
ATOM     18  O   UNL     1      -1.643   8.204  26.471  0.00  0.00    -0.240 OA
ENDBRANCH   7  16
BRANCH   9  19
ATOM     19  O   UNL     1      -3.982   9.964  31.101  0.00  0.00    -0.390 OA
ATOM     20  H   UNL     1      -4.317   9.127  31.431  0.00  0.00    +0.210 HD
ENDBRANCH   9  19
BRANCH   7  21
ATOM     21  O   UNL     1      -4.559   7.320  27.084  0.00  0.00    -0.343 OA
ATOM     22  C   UNL     1      -4.878   6.232  27.987  0.00  0.00    +0.198 C 
ENDBRANCH   7  21
ENDBRANCH   4   5
BRANCH   4  23
ATOM     23  O   UNL     1      -5.152  12.221  26.506  0.00  0.00    -0.387 OA
ATOM     24  H   UNL     1      -5.554  11.862  27.301  0.00  0.00    +0.210 HD
ENDBRANCH   4  23
ENDBRANCH   1   4
BRANCH   1  25
ATOM     25  C   UNL     1      -2.909  13.067  24.437  0.00  0.00    +0.141 C 
BRANCH  25  28
ATOM     26  C   UNL     1      -4.602  13.212  22.643  0.00  0.00    +0.401 C 
ATOM     27  O   UNL     1      -5.552  13.329  23.420  0.00  0.00    -0.226 OA
ATOM     28  N   UNL     1      -3.333  13.078  23.031  0.00  0.00    -0.279 N 
ATOM     29  H   UNL     1      -2.624  12.979  22.319  0.00  0.00    +0.152 HD
BRANCH  26  30
ATOM     30  O   UNL     1      -4.852  13.213  21.235  0.00  0.00    -0.444 OA
BRANCH  30  31
ATOM     31  C   UNL     1      -3.841  12.451  20.570  0.00  0.00    +0.292 C 
BRANCH  31  33
ATOM     32  N   UNL     1      -4.397  10.063  20.948  0.00  0.00    -0.131 NA
ATOM     33  C   UNL     1      -4.388  11.156  20.123  0.00  0.00    +0.120 A 
ATOM     34  C   UNL     1      -4.941  10.808  18.911  0.00  0.00    +0.137 A 
ATOM     35  N   UNL     1      -5.264   9.496  19.076  0.00  0.00    -0.251 N 
ATOM     36  N   UNL     1      -4.935   9.046  20.289  0.00  0.00    -0.065 NA
BRANCH  35  37
ATOM     37  C   UNL     1      -5.866   8.612  18.099  0.00  0.00    +0.150 C 
BRANCH  37  38
ATOM     38  C   UNL     1      -4.859   8.061  17.098  0.00  0.00    +0.074 C 
BRANCH  38  39
ATOM     39  C   UNL     1      -4.872   8.679  15.694  0.00  0.00    +0.134 C 
BRANCH  39  40
ATOM     40  N   UNL     1      -3.624   8.447  14.779  0.00  0.00    +0.241 N 
ATOM     41  C   UNL     1      -4.064   7.663  13.530  0.00  0.00    +0.192 C 
BRANCH  40  42
ATOM     42  C   UNL     1      -2.643   7.550  15.606  0.00  0.00    +0.129 C 
ATOM     43  C   UNL     1      -1.177   7.722  15.226  0.00  0.00    +0.060 C 
ENDBRANCH  40  42
BRANCH  40  44
ATOM     44  C   UNL     1      -2.901   9.731  14.333  0.00  0.00    +0.129 C 
ATOM     45  C   UNL     1      -3.151  10.931  15.232  0.00  0.00    +0.060 C 
ENDBRANCH  40  44
ENDBRANCH  39  40
ENDBRANCH  38  39
ENDBRANCH  37  38
ENDBRANCH  35  37
ENDBRANCH  31  33
ENDBRANCH  30  31
ENDBRANCH  26  30
ENDBRANCH  25  28
ENDBRANCH   1  25
TORSDOF 19
