REMARK VINA RESULT:    -4.879      4.877      9.774
REMARK INTER + INTRA:         -13.094
REMARK INTER:                 -10.766
REMARK INTRA:                  -2.328
REMARK UNBOUND:                -3.793
REMARK  Name = lig_assembled_21.pdb
REMARK  20 active torsions:
REMARK  status: ('A' for Active; 'I' for Inactive)
REMARK    1  A    between atoms: _2  and  _9
REMARK    2  A    between atoms: _4  and  _23
REMARK    3  A    between atoms: _6  and  _7
REMARK    4  A    between atoms: _6  and  _23
REMARK    5  A    between atoms: _9  and  _10
REMARK    6  A    between atoms: _11  and  _18
REMARK    7  A    between atoms: _12  and  _13
REMARK    8  A    between atoms: _12  and  _18
REMARK    9  A    between atoms: _19  and  _39
REMARK   10  A    between atoms: _21  and  _27
REMARK   11  A    between atoms: _22  and  _26
REMARK   12  A    between atoms: _26  and  _27
REMARK   13  A    between atoms: _29  and  _30
REMARK   14  A    between atoms: _31  and  _32
REMARK   15  A    between atoms: _33  and  _35
REMARK   16  A    between atoms: _35  and  _36
REMARK   17  A    between atoms: _35  and  _37
REMARK   18  A    between atoms: _37  and  _38
REMARK   19  A    between atoms: _37  and  _39
REMARK   20  A    between atoms: _40  and  _42
REMARK                            x       y       z     vdW  Elec       q    Type
REMARK                         _______ _______ _______ _____ _____    ______ ____
ROOT
ATOM      1  C   UNL     1      -3.195  11.607  25.202  0.00  0.00    +0.163 C 
ENDROOT
BRANCH   1   2
ATOM      2  O   UNL     1      -2.027  10.771  25.188  0.00  0.00    -0.388 OA
ATOM      3  H   UNL     1      -1.752  10.619  24.281  0.00  0.00    +0.210 HD
ENDBRANCH   1   2
BRANCH   1   4
ATOM      4  C   UNL     1      -3.601  11.961  26.643  0.00  0.00    +0.175 C 
BRANCH   4   5
ATOM      5  C   UNL     1      -3.363  10.795  27.613  0.00  0.00    +0.176 C 
ATOM      6  O   UNL     1      -3.998   9.612  27.055  0.00  0.00    -0.332 OA
ATOM      7  C   UNL     1      -3.784   8.367  27.799  0.00  0.00    +0.277 C 
ATOM      8  C   UNL     1      -4.209   8.541  29.278  0.00  0.00    +0.110 C 
ATOM      9  C   UNL     1      -3.584   9.804  29.905  0.00  0.00    +0.143 C 
ATOM     10  C   UNL     1      -3.865  11.039  29.049  0.00  0.00    +0.133 C 
BRANCH  10  11
ATOM     11  N   UNL     1      -3.191  12.220  29.611  0.00  0.00    -0.308 N 
ATOM     12  H   UNL     1      -2.181  12.224  29.626  0.00  0.00    +0.149 HD
ATOM     13  C   UNL     1      -3.828  13.287  30.102  0.00  0.00    +0.210 C 
ATOM     14  C   UNL     1      -5.367  13.239  30.088  0.00  0.00    +0.109 C 
ATOM     15  O   UNL     1      -3.237  14.269  30.553  0.00  0.00    -0.276 OA
ENDBRANCH  10  11
BRANCH   7  16
ATOM     16  C   UNL     1      -2.303   7.939  27.735  0.00  0.00    +0.414 C 
ATOM     17  O   UNL     1      -1.622   8.209  26.747  0.00  0.00    -0.240 OA
ATOM     18  O   UNL     1      -1.790   7.325  28.671  0.00  0.00    -0.240 OA
ENDBRANCH   7  16
BRANCH   9  19
ATOM     19  O   UNL     1      -4.119  10.007  31.214  0.00  0.00    -0.390 OA
ATOM     20  H   UNL     1      -4.293  10.942  31.347  0.00  0.00    +0.210 HD
ENDBRANCH   9  19
BRANCH   7  21
ATOM     21  O   UNL     1      -4.615   7.339  27.202  0.00  0.00    -0.343 OA
ATOM     22  C   UNL     1      -5.538   6.692  28.114  0.00  0.00    +0.198 C 
ENDBRANCH   7  21
ENDBRANCH   4   5
BRANCH   4  23
ATOM     23  O   UNL     1      -4.984  12.367  26.683  0.00  0.00    -0.387 OA
ATOM     24  H   UNL     1      -5.076  13.231  26.275  0.00  0.00    +0.210 HD
ENDBRANCH   4  23
ENDBRANCH   1   4
BRANCH   1  25
ATOM     25  C   UNL     1      -2.928  12.888  24.418  0.00  0.00    +0.141 C 
BRANCH  25  28
ATOM     26  C   UNL     1      -3.790  12.769  22.105  0.00  0.00    +0.401 C 
ATOM     27  O   UNL     1      -4.933  13.114  22.413  0.00  0.00    -0.226 OA
ATOM     28  N   UNL     1      -2.792  12.631  22.979  0.00  0.00    -0.279 N 
ATOM     29  H   UNL     1      -1.891  12.334  22.632  0.00  0.00    +0.152 HD
BRANCH  26  30
ATOM     30  O   UNL     1      -3.494  12.489  20.734  0.00  0.00    -0.444 OA
BRANCH  30  31
ATOM     31  C   UNL     1      -4.041  11.217  20.377  0.00  0.00    +0.292 C 
BRANCH  31  33
ATOM     32  N   UNL     1      -5.788  12.238  18.958  0.00  0.00    -0.131 NA
ATOM     33  C   UNL     1      -4.785  11.321  19.109  0.00  0.00    +0.120 A 
ATOM     34  C   UNL     1      -4.630  10.627  17.929  0.00  0.00    +0.137 A 
ATOM     35  N   UNL     1      -5.506  11.233  17.070  0.00  0.00    -0.247 N 
ATOM     36  N   UNL     1      -6.224  12.175  17.709  0.00  0.00    -0.065 NA
BRANCH  35  37
ATOM     37  C   UNL     1      -5.611  10.984  15.636  0.00  0.00    +0.184 C 
BRANCH  37  38
ATOM     38  C   UNL     1      -4.887  11.965  14.745  0.00  0.00    +0.016 A 
ATOM     39  C   UNL     1      -3.579  11.727  14.287  0.00  0.00    +0.137 A 
ATOM     40  C   UNL     1      -2.929  12.645  13.461  0.00  0.00    +0.047 A 
ATOM     41  C   UNL     1      -3.588  13.810  13.067  0.00  0.00    +0.004 A 
ATOM     42  C   UNL     1      -4.879  14.070  13.523  0.00  0.00    +0.001 A 
ATOM     43  C   UNL     1      -5.526  13.154  14.353  0.00  0.00    +0.009 A 
BRANCH  39  44
ATOM     44  O   UNL     1      -2.934  10.565  14.771  0.00  0.00    -0.426 OA
BRANCH  44  45
ATOM     45  C   UNL     1      -2.612   9.486  13.946  0.00  0.00    +0.309 C 
ATOM     46  O   UNL     1      -1.630   9.373  13.224  0.00  0.00    -0.251 OA
ATOM     47  C   UNL     1      -3.639   8.408  14.130  0.00  0.00    +0.136 C 
ENDBRANCH  44  45
ENDBRANCH  39  44
ENDBRANCH  37  38
ENDBRANCH  35  37
ENDBRANCH  31  33
ENDBRANCH  30  31
ENDBRANCH  26  30
ENDBRANCH  25  28
ENDBRANCH   1  25
TORSDOF 17
