REMARK VINA RESULT:    -4.628      1.727      2.102
REMARK INTER + INTRA:         -10.516
REMARK INTER:                  -7.570
REMARK INTRA:                  -2.946
REMARK UNBOUND:                -2.505
REMARK  Name = lig_assembled_3.pdb
REMARK  16 active torsions:
REMARK  status: ('A' for Active; 'I' for Inactive)
REMARK    1  A    between atoms: _2  and  _9
REMARK    2  A    between atoms: _4  and  _18
REMARK    3  A    between atoms: _6  and  _7
REMARK    4  A    between atoms: _6  and  _18
REMARK    5  A    between atoms: _14  and  _34
REMARK    6  A    between atoms: _16  and  _22
REMARK    7  A    between atoms: _17  and  _21
REMARK    8  A    between atoms: _21  and  _22
REMARK    9  A    between atoms: _24  and  _25
REMARK   10  A    between atoms: _26  and  _27
REMARK   11  A    between atoms: _28  and  _30
REMARK   12  A    between atoms: _30  and  _31
REMARK   13  A    between atoms: _30  and  _32
REMARK   14  A    between atoms: _32  and  _33
REMARK   15  A    between atoms: _32  and  _34
REMARK   16  A    between atoms: _35  and  _37
REMARK                            x       y       z     vdW  Elec       q    Type
REMARK                         _______ _______ _______ _____ _____    ______ ____
ROOT
ATOM      1  C   UNL     1      -2.381  10.098  26.823  0.00  0.00    +0.163 C 
ENDROOT
BRANCH   1   2
ATOM      2  O   UNL     1      -2.770   9.322  25.678  0.00  0.00    -0.388 OA
ATOM      3  H   UNL     1      -2.542   9.798  24.875  0.00  0.00    +0.210 HD
ENDBRANCH   1   2
BRANCH   1   4
ATOM      4  C   UNL     1      -1.968   9.174  27.964  0.00  0.00    +0.141 C 
BRANCH   4   7
ATOM      5  C   UNL     1      -2.952   8.395  30.092  0.00  0.00    +0.401 C 
ATOM      6  O   UNL     1      -2.319   7.336  30.106  0.00  0.00    -0.226 OA
ATOM      7  N   UNL     1      -2.855   9.309  29.126  0.00  0.00    -0.279 N 
ATOM      8  H   UNL     1      -3.423  10.141  29.198  0.00  0.00    +0.152 HD
BRANCH   5   9
ATOM      9  O   UNL     1      -3.856   8.678  31.163  0.00  0.00    -0.444 OA
BRANCH   9  10
ATOM     10  C   UNL     1      -3.128   9.208  32.274  0.00  0.00    +0.292 C 
BRANCH  10  12
ATOM     11  N   UNL     1      -1.922  11.368  32.238  0.00  0.00    -0.131 NA
ATOM     12  C   UNL     1      -3.102  10.683  32.213  0.00  0.00    +0.121 A 
ATOM     13  C   UNL     1      -4.142  11.578  32.118  0.00  0.00    +0.143 A 
ATOM     14  N   UNL     1      -3.543  12.816  32.061  0.00  0.00    -0.220 N 
ATOM     15  N   UNL     1      -2.198  12.663  32.151  0.00  0.00    -0.060 NA
BRANCH  14  16
ATOM     16  C   UNL     1      -4.149  14.090  31.911  0.00  0.00    +0.067 A 
ATOM     17  C   UNL     1      -3.507  15.113  31.198  0.00  0.00    +0.028 A 
ATOM     18  C   UNL     1      -4.106  16.371  31.088  0.00  0.00    +0.002 A 
ATOM     19  C   UNL     1      -5.343  16.613  31.681  0.00  0.00    +0.000 A 
ATOM     20  C   UNL     1      -5.991  15.598  32.383  0.00  0.00    +0.002 A 
ATOM     21  C   UNL     1      -5.398  14.338  32.498  0.00  0.00    +0.028 A 
ENDBRANCH  14  16
ENDBRANCH  10  12
ENDBRANCH   9  10
ENDBRANCH   5   9
ENDBRANCH   4   7
ENDBRANCH   1   4
BRANCH   1  22
ATOM     22  C   UNL     1      -3.532  11.006  27.288  0.00  0.00    +0.175 C 
BRANCH  22  23
ATOM     23  C   UNL     1      -4.367  11.531  26.111  0.00  0.00    +0.176 C 
ATOM     24  O   UNL     1      -3.449  12.048  25.108  0.00  0.00    -0.332 OA
ATOM     25  C   UNL     1      -4.065  12.499  23.857  0.00  0.00    +0.277 C 
ATOM     26  C   UNL     1      -5.169  13.546  24.144  0.00  0.00    +0.110 C 
ATOM     27  C   UNL     1      -6.152  13.055  25.228  0.00  0.00    +0.143 C 
ATOM     28  C   UNL     1      -5.403  12.607  26.485  0.00  0.00    +0.133 C 
BRANCH  28  29
ATOM     29  N   UNL     1      -6.343  12.060  27.476  0.00  0.00    -0.308 N 
ATOM     30  H   UNL     1      -6.759  11.160  27.285  0.00  0.00    +0.149 HD
ATOM     31  C   UNL     1      -6.681  12.676  28.612  0.00  0.00    +0.210 C 
ATOM     32  C   UNL     1      -6.050  14.059  28.861  0.00  0.00    +0.109 C 
ATOM     33  O   UNL     1      -7.460  12.188  29.432  0.00  0.00    -0.276 OA
ENDBRANCH  28  29
BRANCH  25  34
ATOM     34  C   UNL     1      -4.673  11.309  23.085  0.00  0.00    +0.414 C 
ATOM     35  O   UNL     1      -4.192  10.182  23.205  0.00  0.00    -0.240 OA
ATOM     36  O   UNL     1      -5.643  11.474  22.345  0.00  0.00    -0.240 OA
ENDBRANCH  25  34
BRANCH  27  37
ATOM     37  O   UNL     1      -7.057  14.105  25.569  0.00  0.00    -0.390 OA
ATOM     38  H   UNL     1      -7.091  14.744  24.854  0.00  0.00    +0.210 HD
ENDBRANCH  27  37
BRANCH  25  39
ATOM     39  O   UNL     1      -3.036  13.129  23.051  0.00  0.00    -0.343 OA
ATOM     40  C   UNL     1      -3.410  14.402  22.466  0.00  0.00    +0.198 C 
ENDBRANCH  25  39
ENDBRANCH  22  23
BRANCH  22  41
ATOM     41  O   UNL     1      -3.015  12.108  28.061  0.00  0.00    -0.387 OA
ATOM     42  H   UNL     1      -3.483  12.160  28.898  0.00  0.00    +0.210 HD
ENDBRANCH  22  41
ENDBRANCH   1  22
TORSDOF 14
