REMARK VINA RESULT:    -5.720      4.094     12.249
REMARK INTER + INTRA:         -14.132
REMARK INTER:                  -9.514
REMARK INTRA:                  -4.619
REMARK UNBOUND:                -3.396
REMARK  Name = lig_assembled_34.pdb
REMARK  19 active torsions:
REMARK  status: ('A' for Active; 'I' for Inactive)
REMARK    1  A    between atoms: _2  and  _9
REMARK    2  A    between atoms: _4  and  _37
REMARK    3  A    between atoms: _6  and  _7
REMARK    4  A    between atoms: _6  and  _37
REMARK    5  A    between atoms: _11  and  _12
REMARK    6  A    between atoms: _13  and  _14
REMARK    7  A    between atoms: _18  and  _31
REMARK    8  A    between atoms: _33  and  _53
REMARK    9  A    between atoms: _35  and  _41
REMARK   10  A    between atoms: _36  and  _40
REMARK   11  A    between atoms: _40  and  _41
REMARK   12  A    between atoms: _43  and  _44
REMARK   13  A    between atoms: _45  and  _46
REMARK   14  A    between atoms: _47  and  _49
REMARK   15  A    between atoms: _49  and  _50
REMARK   16  A    between atoms: _49  and  _51
REMARK   17  A    between atoms: _51  and  _52
REMARK   18  A    between atoms: _51  and  _53
REMARK   19  A    between atoms: _54  and  _56
REMARK                            x       y       z     vdW  Elec       q    Type
REMARK                         _______ _______ _______ _____ _____    ______ ____
ROOT
ATOM      1  N   UNL     1      -1.848   6.925  26.375  0.00  0.00    -0.131 NA
ATOM      2  C   UNL     1      -3.076   6.871  25.779  0.00  0.00    +0.121 A 
ATOM      3  C   UNL     1      -3.853   7.891  26.269  0.00  0.00    +0.143 A 
ATOM      4  N   UNL     1      -3.049   8.576  27.154  0.00  0.00    -0.220 N 
ATOM      5  N   UNL     1      -1.841   7.953  27.221  0.00  0.00    -0.060 NA
ENDROOT
BRANCH   4   6
ATOM      6  C   UNL     1      -3.350   9.765  27.870  0.00  0.00    +0.068 A 
ATOM      7  C   UNL     1      -4.263   9.723  28.930  0.00  0.00    +0.038 A 
ATOM      8  C   UNL     1      -4.706  10.887  29.603  0.00  0.00    +0.007 A 
ATOM      9  C   UNL     1      -4.148  12.129  29.239  0.00  0.00    -0.008 A 
ATOM     10  C   UNL     1      -3.188  12.157  28.198  0.00  0.00    +0.011 A 
ATOM     11  C   UNL     1      -2.802  10.996  27.507  0.00  0.00    +0.028 A 
BRANCH   9  12
ATOM     12  C   UNL     1      -4.555  13.450  29.820  0.00  0.00    +0.004 A 
ATOM     13  C   UNL     1      -3.900  14.017  30.873  0.00  0.00    +0.026 A 
ATOM     14  C   UNL     1      -2.785  13.357  31.562  0.00  0.00    +0.016 A 
ATOM     15  C   UNL     1      -2.281  13.843  32.707  0.00  0.00    +0.051 A 
ATOM     16  C   UNL     1      -2.816  15.093  33.296  0.00  0.00    +0.183 A 
ATOM     17  O   UNL     1      -2.408  15.514  34.376  0.00  0.00    -0.288 OA
ATOM     18  C   UNL     1      -3.802  15.853  32.503  0.00  0.00    +0.097 A 
ATOM     19  C   UNL     1      -4.279  15.359  31.354  0.00  0.00    +0.140 A 
ATOM     20  O   UNL     1      -5.094  16.170  30.578  0.00  0.00    -0.455 OA
ATOM     21  C   UNL     1      -5.787  15.602  29.542  0.00  0.00    +0.140 A 
ATOM     22  C   UNL     1      -6.663  16.440  28.851  0.00  0.00    +0.092 A 
ATOM     23  C   UNL     1      -7.439  15.917  27.828  0.00  0.00    +0.120 A 
ATOM     24  C   UNL     1      -7.407  14.556  27.544  0.00  0.00    +0.046 A 
ATOM     25  C   UNL     1      -6.514  13.731  28.236  0.00  0.00    +0.016 A 
ATOM     26  C   UNL     1      -5.645  14.258  29.203  0.00  0.00    +0.026 A 
BRANCH  23  27
ATOM     27  O   UNL     1      -8.221  16.771  27.109  0.00  0.00    -0.507 OA
ATOM     28  H   UNL     1      -8.374  16.366  26.239  0.00  0.00    +0.292 HD
ENDBRANCH  23  27
ENDBRANCH   9  12
BRANCH   8  29
ATOM     29  C   UNL     1      -5.816  10.699  30.619  0.00  0.00    +0.072 C 
ATOM     30  O   UNL     1      -7.000  10.654  30.152  0.00  0.00    -0.545 OA
ATOM     31  O   UNL     1      -5.509  10.678  31.847  0.00  0.00    -0.545 OA
ENDBRANCH   8  29
ENDBRANCH   4   6
BRANCH   2  32
ATOM     32  C   UNL     1      -3.425   5.847  24.775  0.00  0.00    +0.292 C 
BRANCH  32  33
ATOM     33  O   UNL     1      -2.788   6.124  23.525  0.00  0.00    -0.444 OA
BRANCH  33  34
ATOM     34  C   UNL     1      -3.761   6.099  22.478  0.00  0.00    +0.401 C 
ATOM     35  O   UNL     1      -3.661   5.251  21.587  0.00  0.00    -0.226 OA
ATOM     36  N   UNL     1      -4.735   7.008  22.535  0.00  0.00    -0.279 N 
ATOM     37  H   UNL     1      -4.738   7.656  23.310  0.00  0.00    +0.152 HD
BRANCH  36  38
ATOM     38  C   UNL     1      -5.803   7.121  21.534  0.00  0.00    +0.141 C 
BRANCH  38  39
ATOM     39  C   UNL     1      -5.758   8.459  20.803  0.00  0.00    +0.163 C 
BRANCH  39  40
ATOM     40  O   UNL     1      -6.217   8.297  19.451  0.00  0.00    -0.388 OA
ATOM     41  H   UNL     1      -6.794   9.028  19.219  0.00  0.00    +0.210 HD
ENDBRANCH  39  40
BRANCH  39  42
ATOM     42  C   UNL     1      -6.620   9.486  21.557  0.00  0.00    +0.175 C 
BRANCH  42  43
ATOM     43  C   UNL     1      -5.786  10.659  22.093  0.00  0.00    +0.176 C 
ATOM     44  O   UNL     1      -5.914  10.675  23.541  0.00  0.00    -0.332 OA
ATOM     45  C   UNL     1      -5.096  11.670  24.239  0.00  0.00    +0.277 C 
ATOM     46  C   UNL     1      -5.368  13.086  23.675  0.00  0.00    +0.110 C 
ATOM     47  C   UNL     1      -5.274  13.113  22.135  0.00  0.00    +0.143 C 
ATOM     48  C   UNL     1      -6.162  12.035  21.512  0.00  0.00    +0.133 C 
BRANCH  48  49
ATOM     49  N   UNL     1      -5.998  12.013  20.050  0.00  0.00    -0.308 N 
ATOM     50  H   UNL     1      -5.063  11.905  19.682  0.00  0.00    +0.149 HD
ATOM     51  C   UNL     1      -7.003  12.127  19.178  0.00  0.00    +0.210 C 
ATOM     52  C   UNL     1      -8.412  12.317  19.771  0.00  0.00    +0.109 C 
ATOM     53  O   UNL     1      -6.838  12.091  17.958  0.00  0.00    -0.276 OA
ENDBRANCH  48  49
BRANCH  45  54
ATOM     54  C   UNL     1      -3.595  11.340  24.101  0.00  0.00    +0.414 C 
ATOM     55  O   UNL     1      -2.752  12.230  24.199  0.00  0.00    -0.240 OA
ATOM     56  O   UNL     1      -3.228  10.183  23.891  0.00  0.00    -0.240 OA
ENDBRANCH  45  54
BRANCH  47  57
ATOM     57  O   UNL     1      -5.678  14.394  21.650  0.00  0.00    -0.390 OA
ATOM     58  H   UNL     1      -6.253  14.814  22.294  0.00  0.00    +0.210 HD
ENDBRANCH  47  57
BRANCH  45  59
ATOM     59  O   UNL     1      -5.471  11.657  25.641  0.00  0.00    -0.343 OA
ATOM     60  C   UNL     1      -6.421  10.626  26.010  0.00  0.00    +0.198 C 
ENDBRANCH  45  59
ENDBRANCH  42  43
BRANCH  42  61
ATOM     61  O   UNL     1      -7.326   8.844  22.638  0.00  0.00    -0.387 OA
ATOM     62  H   UNL     1      -7.191   7.895  22.590  0.00  0.00    +0.210 HD
ENDBRANCH  42  61
ENDBRANCH  39  42
ENDBRANCH  38  39
ENDBRANCH  36  38
ENDBRANCH  33  34
ENDBRANCH  32  33
ENDBRANCH   2  32
TORSDOF 17
