REMARK VINA RESULT:    -5.203      3.521      8.472
REMARK INTER + INTRA:         -11.392
REMARK INTER:                  -8.964
REMARK INTRA:                  -2.428
REMARK UNBOUND:                -1.779
REMARK  Name = lig_assembled_14.pdb
REMARK  18 active torsions:
REMARK  status: ('A' for Active; 'I' for Inactive)
REMARK    1  A    between atoms: _2  and  _10
REMARK    2  A    between atoms: _3  and  _11
REMARK    3  A    between atoms: _5  and  _19
REMARK    4  A    between atoms: _7  and  _8
REMARK    5  A    between atoms: _7  and  _19
REMARK    6  A    between atoms: _10  and  _11
REMARK    7  A    between atoms: _15  and  _35
REMARK    8  A    between atoms: _17  and  _23
REMARK    9  A    between atoms: _18  and  _22
REMARK   10  A    between atoms: _22  and  _23
REMARK   11  A    between atoms: _25  and  _26
REMARK   12  A    between atoms: _27  and  _28
REMARK   13  A    between atoms: _29  and  _31
REMARK   14  A    between atoms: _31  and  _32
REMARK   15  A    between atoms: _31  and  _33
REMARK   16  A    between atoms: _33  and  _34
REMARK   17  A    between atoms: _33  and  _35
REMARK   18  A    between atoms: _36  and  _38
REMARK                            x       y       z     vdW  Elec       q    Type
REMARK                         _______ _______ _______ _____ _____    ______ ____
ROOT
ATOM      1  C   UNL     1      -4.777   7.617  23.143  0.00  0.00    +0.163 C 
ENDROOT
BRANCH   1   2
ATOM      2  O   UNL     1      -3.534   7.731  22.430  0.00  0.00    -0.388 OA
ATOM      3  H   UNL     1      -3.694   7.631  21.488  0.00  0.00    +0.210 HD
ENDBRANCH   1   2
BRANCH   1   4
ATOM      4  C   UNL     1      -5.191   8.971  23.744  0.00  0.00    +0.175 C 
BRANCH   4   5
ATOM      5  C   UNL     1      -4.013   9.689  24.418  0.00  0.00    +0.176 C 
ATOM      6  O   UNL     1      -4.304   9.789  25.839  0.00  0.00    -0.332 OA
ATOM      7  C   UNL     1      -3.236  10.357  26.667  0.00  0.00    +0.277 C 
ATOM      8  C   UNL     1      -2.808  11.742  26.122  0.00  0.00    +0.110 C 
ATOM      9  C   UNL     1      -2.518  11.693  24.607  0.00  0.00    +0.143 C 
ATOM     10  C   UNL     1      -3.693  11.082  23.843  0.00  0.00    +0.133 C 
BRANCH  10  11
ATOM     11  N   UNL     1      -3.371  10.961  22.413  0.00  0.00    -0.308 N 
ATOM     12  H   UNL     1      -2.649  10.307  22.146  0.00  0.00    +0.149 HD
ATOM     13  C   UNL     1      -3.971  11.659  21.445  0.00  0.00    +0.210 C 
ATOM     14  C   UNL     1      -5.049  12.666  21.887  0.00  0.00    +0.109 C 
ATOM     15  O   UNL     1      -3.691  11.526  20.253  0.00  0.00    -0.276 OA
ENDBRANCH  10  11
BRANCH   7  16
ATOM     16  C   UNL     1      -2.013   9.416  26.703  0.00  0.00    +0.414 C 
ATOM     17  O   UNL     1      -2.164   8.200  26.599  0.00  0.00    -0.240 OA
ATOM     18  O   UNL     1      -0.877   9.874  26.835  0.00  0.00    -0.240 OA
ENDBRANCH   7  16
BRANCH   9  19
ATOM     19  O   UNL     1      -2.276  13.013  24.120  0.00  0.00    -0.390 OA
ATOM     20  H   UNL     1      -2.633  13.654  24.740  0.00  0.00    +0.210 HD
ENDBRANCH   9  19
BRANCH   7  21
ATOM     21  O   UNL     1      -3.755  10.534  28.010  0.00  0.00    -0.343 OA
ATOM     22  C   UNL     1      -4.831   9.633  28.375  0.00  0.00    +0.198 C 
ENDBRANCH   7  21
ENDBRANCH   4   5
BRANCH   4  23
ATOM     23  O   UNL     1      -6.266   8.787  24.687  0.00  0.00    -0.387 OA
ATOM     24  H   UNL     1      -6.239   7.892  25.033  0.00  0.00    +0.210 HD
ENDBRANCH   4  23
ENDBRANCH   1   4
BRANCH   1  25
ATOM     25  C   UNL     1      -5.872   7.119  22.206  0.00  0.00    +0.141 C 
BRANCH  25  28
ATOM     26  C   UNL     1      -6.192   8.817  20.439  0.00  0.00    +0.401 C 
ATOM     27  O   UNL     1      -5.172   8.502  19.821  0.00  0.00    -0.226 OA
ATOM     28  N   UNL     1      -6.592   8.228  21.567  0.00  0.00    -0.279 N 
ATOM     29  H   UNL     1      -7.438   8.562  22.006  0.00  0.00    +0.152 HD
BRANCH  26  30
ATOM     30  O   UNL     1      -7.008   9.878  19.937  0.00  0.00    -0.444 OA
BRANCH  30  31
ATOM     31  C   UNL     1      -7.432   9.567  18.607  0.00  0.00    +0.292 C 
BRANCH  31  33
ATOM     32  N   UNL     1      -7.164  11.762  17.495  0.00  0.00    -0.131 NA
ATOM     33  C   UNL     1      -6.770  10.457  17.635  0.00  0.00    +0.120 A 
ATOM     34  C   UNL     1      -5.744  10.199  16.753  0.00  0.00    +0.137 A 
ATOM     35  N   UNL     1      -5.573  11.381  16.099  0.00  0.00    -0.250 N 
ATOM     36  N   UNL     1      -6.421  12.320  16.552  0.00  0.00    -0.065 NA
BRANCH  35  37
ATOM     37  C   UNL     1      -4.672  11.677  15.006  0.00  0.00    +0.160 C 
BRANCH  37  38
ATOM     38  C   UNL     1      -3.223  11.304  15.342  0.00  0.00    +0.107 C 
BRANCH  38  39
ATOM     39  N   UNL     1      -2.576  10.503  14.288  0.00  0.00    -0.301 NA
ATOM     40  C   UNL     1      -2.312   9.120  14.696  0.00  0.00    +0.084 C 
ATOM     41  C   UNL     1      -2.058   8.429  13.372  0.00  0.00    +0.017 C 
ATOM     42  C   UNL     1      -3.050   9.082  12.427  0.00  0.00    +0.017 C 
ATOM     43  C   UNL     1      -3.414  10.411  13.082  0.00  0.00    +0.084 C 
ENDBRANCH  38  39
ENDBRANCH  37  38
ENDBRANCH  35  37
ENDBRANCH  31  33
ENDBRANCH  30  31
ENDBRANCH  26  30
ENDBRANCH  25  28
ENDBRANCH   1  25
TORSDOF 16
