REMARK VINA RESULT:    -3.774      2.367      7.113
REMARK INTER + INTRA:         -12.272
REMARK INTER:                  -7.491
REMARK INTRA:                  -4.781
REMARK UNBOUND:                -4.638
REMARK  Name = lig_assembled_11.pdb
REMARK  22 active torsions:
REMARK  status: ('A' for Active; 'I' for Inactive)
REMARK    1  A    between atoms: _2  and  _9
REMARK    2  A    between atoms: _4  and  _21
REMARK    3  A    between atoms: _5  and  _9
REMARK    4  A    between atoms: _5  and  _13
REMARK    5  A    between atoms: _6  and  _7
REMARK    6  A    between atoms: _6  and  _21
REMARK    7  A    between atoms: _9  and  _10
REMARK    8  A    between atoms: _10  and  _11
REMARK    9  A    between atoms: _11  and  _12
REMARK   10  A    between atoms: _12  and  _15
REMARK   11  A    between atoms: _17  and  _37
REMARK   12  A    between atoms: _19  and  _25
REMARK   13  A    between atoms: _20  and  _24
REMARK   14  A    between atoms: _24  and  _25
REMARK   15  A    between atoms: _27  and  _28
REMARK   16  A    between atoms: _29  and  _30
REMARK   17  A    between atoms: _31  and  _33
REMARK   18  A    between atoms: _33  and  _34
REMARK   19  A    between atoms: _33  and  _35
REMARK   20  A    between atoms: _35  and  _36
REMARK   21  A    between atoms: _35  and  _37
REMARK   22  A    between atoms: _38  and  _40
REMARK                            x       y       z     vdW  Elec       q    Type
REMARK                         _______ _______ _______ _____ _____    ______ ____
ROOT
ATOM      1  C   UNL     1      -2.753  11.174  27.516  0.00  0.00    +0.163 C 
ENDROOT
BRANCH   1   2
ATOM      2  O   UNL     1      -2.808  11.342  26.090  0.00  0.00    -0.388 OA
ATOM      3  H   UNL     1      -3.716  11.251  25.791  0.00  0.00    +0.210 HD
ENDBRANCH   1   2
BRANCH   1   4
ATOM      4  C   UNL     1      -4.102  11.531  28.164  0.00  0.00    +0.175 C 
BRANCH   4   5
ATOM      5  C   UNL     1      -4.304  10.817  29.509  0.00  0.00    +0.176 C 
ATOM      6  O   UNL     1      -5.484   9.975  29.395  0.00  0.00    -0.332 OA
ATOM      7  C   UNL     1      -5.775   9.130  30.557  0.00  0.00    +0.277 C 
ATOM      8  C   UNL     1      -5.867   9.990  31.842  0.00  0.00    +0.110 C 
ATOM      9  C   UNL     1      -4.649  10.925  31.990  0.00  0.00    +0.143 C 
ATOM     10  C   UNL     1      -4.437  11.755  30.723  0.00  0.00    +0.133 C 
BRANCH  10  11
ATOM     11  N   UNL     1      -3.224  12.578  30.843  0.00  0.00    -0.308 N 
ATOM     12  H   UNL     1      -2.339  12.102  30.947  0.00  0.00    +0.149 HD
ATOM     13  C   UNL     1      -3.215  13.914  30.824  0.00  0.00    +0.210 C 
ATOM     14  C   UNL     1      -4.582  14.611  30.691  0.00  0.00    +0.109 C 
ATOM     15  O   UNL     1      -2.181  14.577  30.912  0.00  0.00    -0.276 OA
ENDBRANCH  10  11
BRANCH   7  16
ATOM     16  C   UNL     1      -4.685   8.052  30.736  0.00  0.00    +0.414 C 
ATOM     17  O   UNL     1      -4.275   7.419  29.764  0.00  0.00    -0.240 OA
ATOM     18  O   UNL     1      -4.217   7.817  31.850  0.00  0.00    -0.240 OA
ENDBRANCH   7  16
BRANCH   7  19
ATOM     19  O   UNL     1      -7.060   8.494  30.339  0.00  0.00    -0.343 OA
ATOM     20  C   UNL     1      -7.953   8.509  31.482  0.00  0.00    +0.198 C 
ENDBRANCH   7  19
BRANCH   9  21
ATOM     21  O   UNL     1      -4.847  11.803  33.099  0.00  0.00    -0.390 OA
ATOM     22  H   UNL     1      -4.763  12.713  32.807  0.00  0.00    +0.210 HD
ENDBRANCH   9  21
ENDBRANCH   4   5
BRANCH   4  23
ATOM     23  O   UNL     1      -5.184  11.214  27.266  0.00  0.00    -0.387 OA
ATOM     24  H   UNL     1      -4.828  10.977  26.406  0.00  0.00    +0.210 HD
ENDBRANCH   4  23
ENDBRANCH   1   4
BRANCH   1  25
ATOM     25  C   UNL     1      -2.389   9.733  27.859  0.00  0.00    +0.141 C 
BRANCH  25  28
ATOM     26  C   UNL     1      -2.971   7.774  26.470  0.00  0.00    +0.401 C 
ATOM     27  O   UNL     1      -1.808   7.554  26.126  0.00  0.00    -0.226 OA
ATOM     28  N   UNL     1      -3.335   8.775  27.272  0.00  0.00    -0.279 N 
ATOM     29  H   UNL     1      -4.316   8.881  27.490  0.00  0.00    +0.152 HD
BRANCH  26  30
ATOM     30  O   UNL     1      -4.012   6.920  25.987  0.00  0.00    -0.444 OA
BRANCH  30  31
ATOM     31  C   UNL     1      -4.082   7.012  24.561  0.00  0.00    +0.292 C 
BRANCH  31  33
ATOM     32  N   UNL     1      -5.097   9.227  25.000  0.00  0.00    -0.131 NA
ATOM     33  C   UNL     1      -4.436   8.383  24.150  0.00  0.00    +0.120 A 
ATOM     34  C   UNL     1      -4.198   9.039  22.964  0.00  0.00    +0.138 A 
ATOM     35  N   UNL     1      -4.775  10.264  23.134  0.00  0.00    -0.238 N 
ATOM     36  N   UNL     1      -5.288  10.380  24.374  0.00  0.00    -0.065 NA
BRANCH  35  37
ATOM     37  C   UNL     1      -4.781  11.436  22.264  0.00  0.00    +0.217 C 
BRANCH  37  38
ATOM     38  C   UNL     1      -3.424  12.110  22.132  0.00  0.00    +0.330 C 
ATOM     39  O   UNL     1      -2.956  12.580  21.107  0.00  0.00    -0.249 OA
BRANCH  38  40
ATOM     40  O   UNL     1      -2.715  12.154  23.288  0.00  0.00    -0.479 OA
ATOM     41  H   UNL     1      -1.763  12.361  23.220  0.00  0.00    +0.295 HD
ENDBRANCH  38  40
ENDBRANCH  37  38
BRANCH  37  42
ATOM     42  C   UNL     1      -5.900  12.424  22.641  0.00  0.00    +0.049 C 
BRANCH  42  43
ATOM     43  C   UNL     1      -5.420  13.837  22.998  0.00  0.00    +0.123 C 
BRANCH  43  44
ATOM     44  C   UNL     1      -5.561  14.098  24.480  0.00  0.00    +0.305 C 
ATOM     45  O   UNL     1      -6.298  14.936  24.972  0.00  0.00    -0.251 OA
BRANCH  44  46
ATOM     46  O   UNL     1      -4.755  13.310  25.226  0.00  0.00    -0.481 OA
ATOM     47  H   UNL     1      -3.849  13.211  24.877  0.00  0.00    +0.295 HD
ENDBRANCH  44  46
ENDBRANCH  43  44
ENDBRANCH  42  43
ENDBRANCH  37  42
ENDBRANCH  35  37
ENDBRANCH  31  33
ENDBRANCH  30  31
ENDBRANCH  26  30
ENDBRANCH  25  28
ENDBRANCH   1  25
TORSDOF 20
