REMARK VINA RESULT:    -5.304      4.393     10.087
REMARK INTER + INTRA:         -11.673
REMARK INTER:                  -9.033
REMARK INTRA:                  -2.640
REMARK UNBOUND:                -2.494
REMARK  Name = lig_assembled_56.pdb
REMARK  16 active torsions:
REMARK  status: ('A' for Active; 'I' for Inactive)
REMARK    1  A    between atoms: _2  and  _10
REMARK    2  A    between atoms: _5  and  _18
REMARK    3  A    between atoms: _7  and  _8
REMARK    4  A    between atoms: _7  and  _18
REMARK    5  A    between atoms: _14  and  _34
REMARK    6  A    between atoms: _16  and  _22
REMARK    7  A    between atoms: _17  and  _21
REMARK    8  A    between atoms: _21  and  _22
REMARK    9  A    between atoms: _24  and  _25
REMARK   10  A    between atoms: _26  and  _27
REMARK   11  A    between atoms: _28  and  _30
REMARK   12  A    between atoms: _30  and  _31
REMARK   13  A    between atoms: _30  and  _32
REMARK   14  A    between atoms: _32  and  _33
REMARK   15  A    between atoms: _32  and  _34
REMARK   16  A    between atoms: _35  and  _37
REMARK                            x       y       z     vdW  Elec       q    Type
REMARK                         _______ _______ _______ _____ _____    ______ ____
ROOT
ATOM      1  C   UNL     1      -2.363   9.740  26.971  0.00  0.00    +0.163 C 
ENDROOT
BRANCH   1   2
ATOM      2  O   UNL     1      -1.175   9.946  26.190  0.00  0.00    -0.388 OA
ATOM      3  H   UNL     1      -0.766   9.098  25.999  0.00  0.00    +0.210 HD
ENDBRANCH   1   2
BRANCH   1   4
ATOM      4  C   UNL     1      -1.994   9.200  28.349  0.00  0.00    +0.141 C 
BRANCH   4   7
ATOM      5  C   UNL     1      -3.555   9.543  30.234  0.00  0.00    +0.401 C 
ATOM      6  O   UNL     1      -4.048   8.415  30.154  0.00  0.00    -0.226 OA
ATOM      7  N   UNL     1      -2.595   9.996  29.427  0.00  0.00    -0.279 N 
ATOM      8  H   UNL     1      -2.261  10.940  29.565  0.00  0.00    +0.152 HD
BRANCH   5   9
ATOM      9  O   UNL     1      -4.029  10.438  31.243  0.00  0.00    -0.444 OA
BRANCH   9  10
ATOM     10  C   UNL     1      -2.935  10.856  32.064  0.00  0.00    +0.292 C 
BRANCH  10  12
ATOM     11  N   UNL     1      -1.705  12.970  32.436  0.00  0.00    -0.131 NA
ATOM     12  C   UNL     1      -2.865  12.329  32.114  0.00  0.00    +0.121 A 
ATOM     13  C   UNL     1      -3.844  13.266  31.869  0.00  0.00    +0.143 A 
ATOM     14  N   UNL     1      -3.221  14.481  32.039  0.00  0.00    -0.220 N 
ATOM     15  N   UNL     1      -1.929  14.276  32.392  0.00  0.00    -0.060 NA
BRANCH  14  16
ATOM     16  C   UNL     1      -3.757  15.783  31.881  0.00  0.00    +0.070 A 
ATOM     17  C   UNL     1      -4.445  16.143  30.720  0.00  0.00    +0.047 A 
ATOM     18  C   UNL     1      -4.928  17.438  30.625  0.00  0.00    +0.113 A 
ATOM     19  N   UNL     1      -4.775  18.371  31.588  0.00  0.00    -0.263 NA
ATOM     20  C   UNL     1      -4.109  17.997  32.702  0.00  0.00    +0.113 A 
ATOM     21  C   UNL     1      -3.588  16.730  32.896  0.00  0.00    +0.047 A 
ENDBRANCH  14  16
ENDBRANCH  10  12
ENDBRANCH   9  10
ENDBRANCH   5   9
ENDBRANCH   4   7
ENDBRANCH   1   4
BRANCH   1  22
ATOM     22  C   UNL     1      -3.318   8.756  26.272  0.00  0.00    +0.175 C 
BRANCH  22  23
ATOM     23  C   UNL     1      -4.151   9.439  25.177  0.00  0.00    +0.176 C 
ATOM     24  O   UNL     1      -3.272   9.709  24.051  0.00  0.00    -0.332 OA
ATOM     25  C   UNL     1      -3.921  10.268  22.861  0.00  0.00    +0.277 C 
ATOM     26  C   UNL     1      -4.713  11.548  23.227  0.00  0.00    +0.110 C 
ATOM     27  C   UNL     1      -5.638  11.317  24.440  0.00  0.00    +0.143 C 
ATOM     28  C   UNL     1      -4.860  10.732  25.619  0.00  0.00    +0.133 C 
BRANCH  28  29
ATOM     29  N   UNL     1      -5.768  10.436  26.739  0.00  0.00    -0.308 N 
ATOM     30  H   UNL     1      -6.412   9.665  26.633  0.00  0.00    +0.149 HD
ATOM     31  C   UNL     1      -5.797  11.120  27.886  0.00  0.00    +0.210 C 
ATOM     32  C   UNL     1      -4.821  12.306  28.006  0.00  0.00    +0.109 C 
ATOM     33  O   UNL     1      -6.558  10.841  28.813  0.00  0.00    -0.276 OA
ENDBRANCH  28  29
BRANCH  25  34
ATOM     34  C   UNL     1      -4.875   9.237  22.223  0.00  0.00    +0.414 C 
ATOM     35  O   UNL     1      -5.948   9.599  21.740  0.00  0.00    -0.240 OA
ATOM     36  O   UNL     1      -4.573   8.043  22.190  0.00  0.00    -0.240 OA
ENDBRANCH  25  34
BRANCH  27  37
ATOM     37  O   UNL     1      -6.231  12.555  24.836  0.00  0.00    -0.390 OA
ATOM     38  H   UNL     1      -6.031  12.726  25.759  0.00  0.00    +0.210 HD
ENDBRANCH  27  37
BRANCH  25  39
ATOM     39  O   UNL     1      -2.885  10.627  21.911  0.00  0.00    -0.343 OA
ATOM     40  C   UNL     1      -3.157  11.818  21.129  0.00  0.00    +0.198 C 
ENDBRANCH  25  39
ENDBRANCH  22  23
BRANCH  22  41
ATOM     41  O   UNL     1      -4.185   8.133  27.241  0.00  0.00    -0.387 OA
ATOM     42  H   UNL     1      -4.864   8.756  27.510  0.00  0.00    +0.210 HD
ENDBRANCH  22  41
ENDBRANCH   1  22
TORSDOF 14
