REMARK VINA RESULT:    -4.649      1.878      3.949
REMARK INTER + INTRA:         -11.220
REMARK INTER:                  -8.406
REMARK INTRA:                  -2.814
REMARK UNBOUND:                -2.903
REMARK  Name = lig_assembled_69.pdb
REMARK  18 active torsions:
REMARK  status: ('A' for Active; 'I' for Inactive)
REMARK    1  A    between atoms: _2  and  _9
REMARK    2  A    between atoms: _4  and  _21
REMARK    3  A    between atoms: _6  and  _7
REMARK    4  A    between atoms: _6  and  _21
REMARK    5  A    between atoms: _11  and  _16
REMARK    6  A    between atoms: _14  and  _15
REMARK    7  A    between atoms: _17  and  _37
REMARK    8  A    between atoms: _19  and  _25
REMARK    9  A    between atoms: _20  and  _24
REMARK   10  A    between atoms: _24  and  _25
REMARK   11  A    between atoms: _27  and  _28
REMARK   12  A    between atoms: _29  and  _30
REMARK   13  A    between atoms: _31  and  _33
REMARK   14  A    between atoms: _33  and  _34
REMARK   15  A    between atoms: _33  and  _35
REMARK   16  A    between atoms: _35  and  _36
REMARK   17  A    between atoms: _35  and  _37
REMARK   18  A    between atoms: _38  and  _40
REMARK                            x       y       z     vdW  Elec       q    Type
REMARK                         _______ _______ _______ _____ _____    ______ ____
ROOT
ATOM      1  C   UNL     1      -3.411  11.527  32.265  0.00  0.00    +0.163 C 
ENDROOT
BRANCH   1   2
ATOM      2  O   UNL     1      -2.013  11.202  32.334  0.00  0.00    -0.388 OA
ATOM      3  H   UNL     1      -1.583  11.770  32.978  0.00  0.00    +0.210 HD
ENDBRANCH   1   2
BRANCH   1   4
ATOM      4  C   UNL     1      -3.669  12.628  31.222  0.00  0.00    +0.175 C 
BRANCH   4   5
ATOM      5  C   UNL     1      -5.158  12.750  30.867  0.00  0.00    +0.176 C 
ATOM      6  O   UNL     1      -5.323  12.338  29.482  0.00  0.00    -0.332 OA
ATOM      7  C   UNL     1      -6.705  12.288  28.995  0.00  0.00    +0.277 C 
ATOM      8  C   UNL     1      -7.408  13.648  29.224  0.00  0.00    +0.110 C 
ATOM      9  C   UNL     1      -7.234  14.142  30.675  0.00  0.00    +0.143 C 
ATOM     10  C   UNL     1      -5.759  14.152  31.078  0.00  0.00    +0.133 C 
BRANCH  10  11
ATOM     11  N   UNL     1      -5.613  14.542  32.490  0.00  0.00    -0.308 N 
ATOM     12  H   UNL     1      -6.067  13.968  33.187  0.00  0.00    +0.149 HD
ATOM     13  C   UNL     1      -4.920  15.603  32.909  0.00  0.00    +0.210 C 
ATOM     14  C   UNL     1      -4.262  16.472  31.821  0.00  0.00    +0.109 C 
ATOM     15  O   UNL     1      -4.803  15.897  34.100  0.00  0.00    -0.276 OA
ENDBRANCH  10  11
BRANCH   7  16
ATOM     16  C   UNL     1      -7.496  11.171  29.709  0.00  0.00    +0.414 C 
ATOM     17  O   UNL     1      -8.639  11.382  30.111  0.00  0.00    -0.240 OA
ATOM     18  O   UNL     1      -6.991  10.061  29.882  0.00  0.00    -0.240 OA
ENDBRANCH   7  16
BRANCH   7  19
ATOM     19  O   UNL     1      -6.669  12.025  27.569  0.00  0.00    -0.343 OA
ATOM     20  C   UNL     1      -6.816  13.197  26.727  0.00  0.00    +0.198 C 
ENDBRANCH   7  19
BRANCH   9  21
ATOM     21  O   UNL     1      -7.765  15.462  30.801  0.00  0.00    -0.390 OA
ATOM     22  H   UNL     1      -7.064  16.104  30.663  0.00  0.00    +0.210 HD
ENDBRANCH   9  21
ENDBRANCH   4   5
BRANCH   4  23
ATOM     23  O   UNL     1      -2.894  12.378  30.033  0.00  0.00    -0.387 OA
ATOM     24  H   UNL     1      -2.075  12.877  30.074  0.00  0.00    +0.210 HD
ENDBRANCH   4  23
ENDBRANCH   1   4
BRANCH   1  25
ATOM     25  C   UNL     1      -4.218  10.285  31.906  0.00  0.00    +0.141 C 
BRANCH  25  28
ATOM     26  C   UNL     1      -3.840   8.439  30.307  0.00  0.00    +0.401 C 
ATOM     27  O   UNL     1      -4.160   7.556  31.105  0.00  0.00    -0.226 OA
ATOM     28  N   UNL     1      -3.832   9.741  30.598  0.00  0.00    -0.279 N 
ATOM     29  H   UNL     1      -3.545  10.389  29.878  0.00  0.00    +0.152 HD
BRANCH  26  30
ATOM     30  O   UNL     1      -3.445   8.069  28.983  0.00  0.00    -0.444 OA
BRANCH  30  31
ATOM     31  C   UNL     1      -2.232   8.744  28.640  0.00  0.00    +0.292 C 
BRANCH  31  33
ATOM     32  N   UNL     1      -1.410   9.727  26.527  0.00  0.00    -0.131 NA
ATOM     33  C   UNL     1      -2.425   9.565  27.431  0.00  0.00    +0.120 A 
ATOM     34  C   UNL     1      -3.527  10.271  27.002  0.00  0.00    +0.137 A 
ATOM     35  N   UNL     1      -3.114  10.850  25.839  0.00  0.00    -0.248 N 
ATOM     36  N   UNL     1      -1.841  10.521  25.559  0.00  0.00    -0.065 NA
BRANCH  35  37
ATOM     37  C   UNL     1      -3.857  11.766  24.975  0.00  0.00    +0.114 C 
ATOM     38  C   UNL     1      -4.663  11.009  23.913  0.00  0.00    +0.062 C 
ATOM     39  C   UNL     1      -3.909  10.622  22.640  0.00  0.00    +0.139 C 
ATOM     40  C   UNL     1      -3.540  11.746  21.713  0.00  0.00    +0.002 C 
ATOM     41  C   UNL     1      -3.418  13.055  21.987  0.00  0.00    +0.002 C 
ATOM     42  C   UNL     1      -3.477  13.720  23.328  0.00  0.00    +0.139 C 
ATOM     43  C   UNL     1      -2.927  12.881  24.476  0.00  0.00    +0.062 C 
BRANCH  39  44
ATOM     44  O   UNL     1      -4.776   9.771  21.881  0.00  0.00    -0.388 OA
ATOM     45  H   UNL     1      -4.246   9.381  21.165  0.00  0.00    +0.210 HD
ENDBRANCH  39  44
BRANCH  42  46
ATOM     46  O   UNL     1      -4.813  14.117  23.598  0.00  0.00    -0.388 OA
ATOM     47  H   UNL     1      -4.778  15.011  23.980  0.00  0.00    +0.210 HD
ENDBRANCH  42  46
ENDBRANCH  35  37
ENDBRANCH  31  33
ENDBRANCH  30  31
ENDBRANCH  26  30
ENDBRANCH  25  28
ENDBRANCH   1  25
TORSDOF 16
