REMARK VINA RESULT:    -4.649      5.745      9.836
REMARK INTER + INTRA:         -12.479
REMARK INTER:                 -10.529
REMARK INTRA:                  -1.950
REMARK UNBOUND:                -3.890
REMARK  Name = lig_assembled_66.pdb
REMARK  18 active torsions:
REMARK  status: ('A' for Active; 'I' for Inactive)
REMARK    1  A    between atoms: _2  and  _10
REMARK    2  A    between atoms: _5  and  _21
REMARK    3  A    between atoms: _7  and  _8
REMARK    4  A    between atoms: _7  and  _21
REMARK    5  A    between atoms: _10  and  _11
REMARK    6  A    between atoms: _15  and  _16
REMARK    7  A    between atoms: _17  and  _37
REMARK    8  A    between atoms: _19  and  _25
REMARK    9  A    between atoms: _20  and  _24
REMARK   10  A    between atoms: _24  and  _25
REMARK   11  A    between atoms: _27  and  _28
REMARK   12  A    between atoms: _29  and  _30
REMARK   13  A    between atoms: _31  and  _33
REMARK   14  A    between atoms: _33  and  _34
REMARK   15  A    between atoms: _33  and  _35
REMARK   16  A    between atoms: _35  and  _36
REMARK   17  A    between atoms: _35  and  _37
REMARK   18  A    between atoms: _38  and  _40
REMARK                            x       y       z     vdW  Elec       q    Type
REMARK                         _______ _______ _______ _____ _____    ______ ____
ROOT
ATOM      1  C   UNL     1      -3.921  11.561  21.998  0.00  0.00    +0.163 C 
ENDROOT
BRANCH   1   2
ATOM      2  O   UNL     1      -3.499  10.342  21.366  0.00  0.00    -0.388 OA
ATOM      3  H   UNL     1      -2.619  10.109  21.673  0.00  0.00    +0.210 HD
ENDBRANCH   1   2
BRANCH   1   4
ATOM      4  C   UNL     1      -2.944  11.970  23.113  0.00  0.00    +0.175 C 
BRANCH   4   5
ATOM      5  C   UNL     1      -3.338  11.376  24.473  0.00  0.00    +0.176 C 
ATOM      6  O   UNL     1      -3.127   9.939  24.412  0.00  0.00    -0.332 OA
ATOM      7  C   UNL     1      -3.353   9.211  25.664  0.00  0.00    +0.277 C 
ATOM      8  C   UNL     1      -4.768   9.508  26.216  0.00  0.00    +0.110 C 
ATOM      9  C   UNL     1      -5.051  11.024  26.270  0.00  0.00    +0.143 C 
ATOM     10  C   UNL     1      -4.781  11.682  24.916  0.00  0.00    +0.133 C 
BRANCH  10  11
ATOM     11  N   UNL     1      -4.970  13.138  25.004  0.00  0.00    -0.308 N 
ATOM     12  H   UNL     1      -4.320  13.665  25.570  0.00  0.00    +0.149 HD
ATOM     13  C   UNL     1      -5.945  13.810  24.384  0.00  0.00    +0.210 C 
ATOM     14  C   UNL     1      -6.934  12.975  23.549  0.00  0.00    +0.109 C 
ATOM     15  O   UNL     1      -6.070  15.032  24.463  0.00  0.00    -0.276 OA
ENDBRANCH  10  11
BRANCH   7  16
ATOM     16  C   UNL     1      -2.296   9.597  26.719  0.00  0.00    +0.414 C 
ATOM     17  O   UNL     1      -1.123   9.770  26.389  0.00  0.00    -0.240 OA
ATOM     18  O   UNL     1      -2.616   9.737  27.901  0.00  0.00    -0.240 OA
ENDBRANCH   7  16
BRANCH   7  19
ATOM     19  O   UNL     1      -3.262   7.791  25.380  0.00  0.00    -0.343 OA
ATOM     20  C   UNL     1      -4.038   6.939  26.260  0.00  0.00    +0.198 C 
ENDBRANCH   7  19
BRANCH   9  21
ATOM     21  O   UNL     1      -6.413  11.248  26.638  0.00  0.00    -0.390 OA
ATOM     22  H   UNL     1      -6.901  11.576  25.880  0.00  0.00    +0.210 HD
ENDBRANCH   9  21
ENDBRANCH   4   5
BRANCH   4  23
ATOM     23  O   UNL     1      -2.865  13.407  23.203  0.00  0.00    -0.387 OA
ATOM     24  H   UNL     1      -3.602  13.736  23.722  0.00  0.00    +0.210 HD
ENDBRANCH   4  23
ENDBRANCH   1   4
BRANCH   1  25
ATOM     25  C   UNL     1      -4.012  12.680  20.965  0.00  0.00    +0.141 C 
BRANCH  25  28
ATOM     26  C   UNL     1      -5.519  12.109  19.092  0.00  0.00    +0.401 C 
ATOM     27  O   UNL     1      -6.540  12.479  19.677  0.00  0.00    -0.226 OA
ATOM     28  N   UNL     1      -4.296  12.162  19.621  0.00  0.00    -0.279 N 
ATOM     29  H   UNL     1      -3.522  11.826  19.065  0.00  0.00    +0.152 HD
BRANCH  26  30
ATOM     30  O   UNL     1      -5.630  11.586  17.766  0.00  0.00    -0.444 OA
BRANCH  30  31
ATOM     31  C   UNL     1      -4.420  10.908  17.417  0.00  0.00    +0.292 C 
BRANCH  31  33
ATOM     32  N   UNL     1      -2.865  10.774  15.493  0.00  0.00    -0.131 NA
ATOM     33  C   UNL     1      -3.915  11.393  16.118  0.00  0.00    +0.120 A 
ATOM     34  C   UNL     1      -4.366  12.424  15.324  0.00  0.00    +0.137 A 
ATOM     35  N   UNL     1      -3.588  12.344  14.205  0.00  0.00    -0.247 N 
ATOM     36  N   UNL     1      -2.674  11.362  14.319  0.00  0.00    -0.065 NA
BRANCH  35  37
ATOM     37  C   UNL     1      -3.822  12.980  12.922  0.00  0.00    +0.180 C 
BRANCH  37  38
ATOM     38  C   UNL     1      -3.143  14.319  12.786  0.00  0.00    -0.025 A 
ATOM     39  C   UNL     1      -3.896  15.502  12.814  0.00  0.00    +0.005 A 
ATOM     40  C   UNL     1      -3.267  16.749  12.774  0.00  0.00    +0.002 A 
ATOM     41  C   UNL     1      -1.877  16.828  12.684  0.00  0.00    +0.019 A 
ATOM     42  C   UNL     1      -1.115  15.659  12.619  0.00  0.00    +0.052 A 
ATOM     43  C   UNL     1      -1.746  14.409  12.672  0.00  0.00    +0.024 A 
BRANCH  42  44
ATOM     44  C   UNL     1       0.313  15.738  12.510  0.00  0.00    +0.099 C 
ATOM     45  N   UNL     1       1.469  15.807  12.429  0.00  0.00    -0.191 NA
ENDBRANCH  42  44
ENDBRANCH  37  38
ENDBRANCH  35  37
ENDBRANCH  31  33
ENDBRANCH  30  31
ENDBRANCH  26  30
ENDBRANCH  25  28
ENDBRANCH   1  25
TORSDOF 16
