REMARK VINA RESULT:    -4.468      3.020      6.466
REMARK INTER + INTRA:         -10.228
REMARK INTER:                  -7.006
REMARK INTRA:                  -3.221
REMARK UNBOUND:                -2.233
REMARK  Name = lig_assembled_61.pdb
REMARK  17 active torsions:
REMARK  status: ('A' for Active; 'I' for Inactive)
REMARK    1  A    between atoms: _2  and  _9
REMARK    2  A    between atoms: _4  and  _17
REMARK    3  A    between atoms: _6  and  _7
REMARK    4  A    between atoms: _6  and  _17
REMARK    5  A    between atoms: _9  and  _10
REMARK    6  A    between atoms: _13  and  _33
REMARK    7  A    between atoms: _15  and  _21
REMARK    8  A    between atoms: _16  and  _20
REMARK    9  A    between atoms: _20  and  _21
REMARK   10  A    between atoms: _23  and  _24
REMARK   11  A    between atoms: _25  and  _26
REMARK   12  A    between atoms: _27  and  _29
REMARK   13  A    between atoms: _29  and  _30
REMARK   14  A    between atoms: _29  and  _31
REMARK   15  A    between atoms: _31  and  _32
REMARK   16  A    between atoms: _31  and  _33
REMARK   17  A    between atoms: _34  and  _36
REMARK                            x       y       z     vdW  Elec       q    Type
REMARK                         _______ _______ _______ _____ _____    ______ ____
ROOT
ATOM      1  C   UNL     1      -3.244  11.762  25.083  0.00  0.00    +0.163 C 
ENDROOT
BRANCH   1   2
ATOM      2  O   UNL     1      -2.024  11.003  25.064  0.00  0.00    -0.388 OA
ATOM      3  H   UNL     1      -1.577  11.094  25.909  0.00  0.00    +0.210 HD
ENDBRANCH   1   2
BRANCH   1   4
ATOM      4  C   UNL     1      -3.040  13.096  24.373  0.00  0.00    +0.141 C 
BRANCH   4   7
ATOM      5  C   UNL     1      -4.216  12.943  22.205  0.00  0.00    +0.401 C 
ATOM      6  O   UNL     1      -3.360  12.224  21.684  0.00  0.00    -0.226 OA
ATOM      7  N   UNL     1      -4.144  13.402  23.455  0.00  0.00    -0.279 N 
ATOM      8  H   UNL     1      -4.892  13.994  23.789  0.00  0.00    +0.152 HD
BRANCH   5   9
ATOM      9  O   UNL     1      -5.362  13.324  21.439  0.00  0.00    -0.444 OA
BRANCH   9  10
ATOM     10  C   UNL     1      -6.475  13.526  22.314  0.00  0.00    +0.292 C 
BRANCH  10  12
ATOM     11  N   UNL     1      -6.861  12.155  24.338  0.00  0.00    -0.131 NA
ATOM     12  C   UNL     1      -6.851  12.261  22.971  0.00  0.00    +0.120 A 
ATOM     13  C   UNL     1      -7.228  11.055  22.422  0.00  0.00    +0.137 A 
ATOM     14  N   UNL     1      -7.397  10.242  23.504  0.00  0.00    -0.247 N 
ATOM     15  N   UNL     1      -7.217  10.917  24.654  0.00  0.00    -0.065 NA
BRANCH  14  16
ATOM     16  C   UNL     1      -7.764   8.837  23.524  0.00  0.00    +0.180 C 
BRANCH  16  17
ATOM     17  C   UNL     1      -6.554   7.944  23.532  0.00  0.00    -0.019 A 
ATOM     18  C   UNL     1      -6.600   6.511  23.612  0.00  0.00    +0.013 A 
ATOM     19  C   UNL     1      -5.347   5.937  23.641  0.00  0.00    +0.045 A 
ATOM     20  S   UNL     1      -4.106   7.106  23.559  0.00  0.00    -0.105 S 
ATOM     21  C   UNL     1      -5.240   8.383  23.498  0.00  0.00    +0.050 A 
ENDBRANCH  16  17
ENDBRANCH  14  16
ENDBRANCH  10  12
ENDBRANCH   9  10
ENDBRANCH   5   9
ENDBRANCH   4   7
ENDBRANCH   1   4
BRANCH   1  22
ATOM     22  C   UNL     1      -3.712  12.015  26.527  0.00  0.00    +0.175 C 
BRANCH  22  23
ATOM     23  C   UNL     1      -3.410  10.825  27.449  0.00  0.00    +0.176 C 
ATOM     24  O   UNL     1      -4.037   9.645  26.876  0.00  0.00    -0.332 OA
ATOM     25  C   UNL     1      -3.766   8.383  27.571  0.00  0.00    +0.277 C 
ATOM     26  C   UNL     1      -4.140   8.498  29.069  0.00  0.00    +0.110 C 
ATOM     27  C   UNL     1      -3.521   9.756  29.714  0.00  0.00    +0.143 C 
ATOM     28  C   UNL     1      -3.864  11.011  28.909  0.00  0.00    +0.133 C 
BRANCH  28  29
ATOM     29  N   UNL     1      -3.198  12.190  29.485  0.00  0.00    -0.308 N 
ATOM     30  H   UNL     1      -2.188  12.220  29.461  0.00  0.00    +0.149 HD
ATOM     31  C   UNL     1      -3.840  13.223  30.036  0.00  0.00    +0.210 C 
ATOM     32  C   UNL     1      -5.377  13.135  30.081  0.00  0.00    +0.109 C 
ATOM     33  O   UNL     1      -3.257  14.204  30.497  0.00  0.00    -0.276 OA
ENDBRANCH  28  29
BRANCH  25  34
ATOM     34  C   UNL     1      -2.279   7.994  27.438  0.00  0.00    +0.414 C 
ATOM     35  O   UNL     1      -1.716   7.378  28.343  0.00  0.00    -0.240 OA
ATOM     36  O   UNL     1      -1.642   8.296  26.428  0.00  0.00    -0.240 OA
ENDBRANCH  25  34
BRANCH  25  37
ATOM     37  O   UNL     1      -4.595   7.354  26.971  0.00  0.00    -0.343 OA
ATOM     38  C   UNL     1      -6.016   7.484  27.229  0.00  0.00    +0.198 C 
ENDBRANCH  25  37
BRANCH  27  39
ATOM     39  O   UNL     1      -4.012   9.904  31.047  0.00  0.00    -0.390 OA
ATOM     40  H   UNL     1      -3.776  10.773  31.381  0.00  0.00    +0.210 HD
ENDBRANCH  27  39
ENDBRANCH  22  23
BRANCH  22  41
ATOM     41  O   UNL     1      -5.122  12.314  26.546  0.00  0.00    -0.387 OA
ATOM     42  H   UNL     1      -5.396  12.627  25.681  0.00  0.00    +0.210 HD
ENDBRANCH  22  41
ENDBRANCH   1  22
TORSDOF 15
