REMARK VINA RESULT:    -5.042      3.280      5.655
REMARK INTER + INTRA:         -11.306
REMARK INTER:                  -8.196
REMARK INTRA:                  -3.110
REMARK UNBOUND:                -1.695
REMARK  Name = lig_assembled_12.pdb
REMARK  19 active torsions:
REMARK  status: ('A' for Active; 'I' for Inactive)
REMARK    1  A    between atoms: _2  and  _9
REMARK    2  A    between atoms: _4  and  _21
REMARK    3  A    between atoms: _6  and  _7
REMARK    4  A    between atoms: _6  and  _21
REMARK    5  A    between atoms: _9  and  _16
REMARK    6  A    between atoms: _10  and  _11
REMARK    7  A    between atoms: _10  and  _16
REMARK    8  A    between atoms: _17  and  _37
REMARK    9  A    between atoms: _19  and  _25
REMARK   10  A    between atoms: _20  and  _24
REMARK   11  A    between atoms: _24  and  _25
REMARK   12  A    between atoms: _27  and  _28
REMARK   13  A    between atoms: _29  and  _30
REMARK   14  A    between atoms: _31  and  _33
REMARK   15  A    between atoms: _33  and  _34
REMARK   16  A    between atoms: _33  and  _35
REMARK   17  A    between atoms: _35  and  _36
REMARK   18  A    between atoms: _35  and  _37
REMARK   19  A    between atoms: _38  and  _40
REMARK                            x       y       z     vdW  Elec       q    Type
REMARK                         _______ _______ _______ _____ _____    ______ ____
ROOT
ATOM      1  C   UNL     1      -4.312  11.604  31.662  0.00  0.00    +0.163 C 
ENDROOT
BRANCH   1   2
ATOM      2  O   UNL     1      -5.292  11.775  30.625  0.00  0.00    -0.388 OA
ATOM      3  H   UNL     1      -4.877  12.173  29.855  0.00  0.00    +0.210 HD
ENDBRANCH   1   2
BRANCH   1   4
ATOM      4  C   UNL     1      -2.932  11.276  31.067  0.00  0.00    +0.175 C 
BRANCH   4   5
ATOM      5  C   UNL     1      -2.956   9.992  30.224  0.00  0.00    +0.176 C 
ATOM      6  O   UNL     1      -3.540  10.316  28.932  0.00  0.00    -0.332 OA
ATOM      7  C   UNL     1      -3.548   9.228  27.950  0.00  0.00    +0.277 C 
ATOM      8  C   UNL     1      -4.241   7.974  28.537  0.00  0.00    +0.110 C 
ATOM      9  C   UNL     1      -3.675   7.609  29.926  0.00  0.00    +0.143 C 
ATOM     10  C   UNL     1      -3.711   8.814  30.867  0.00  0.00    +0.133 C 
BRANCH  10  11
ATOM     11  N   UNL     1      -3.090   8.478  32.158  0.00  0.00    -0.308 N 
ATOM     12  H   UNL     1      -2.091   8.331  32.176  0.00  0.00    +0.149 HD
ATOM     13  C   UNL     1      -3.761   8.354  33.306  0.00  0.00    +0.210 C 
ATOM     14  C   UNL     1      -5.286   8.559  33.240  0.00  0.00    +0.109 C 
ATOM     15  O   UNL     1      -3.212   8.086  34.376  0.00  0.00    -0.276 OA
ENDBRANCH  10  11
BRANCH   7  16
ATOM     16  C   UNL     1      -2.111   8.869  27.519  0.00  0.00    +0.414 C 
ATOM     17  O   UNL     1      -1.235   9.733  27.501  0.00  0.00    -0.240 OA
ATOM     18  O   UNL     1      -1.828   7.717  27.188  0.00  0.00    -0.240 OA
ENDBRANCH   7  16
BRANCH   9  19
ATOM     19  O   UNL     1      -4.440   6.545  30.494  0.00  0.00    -0.390 OA
ATOM     20  H   UNL     1      -4.519   6.677  31.441  0.00  0.00    +0.210 HD
ENDBRANCH   9  19
BRANCH   7  21
ATOM     21  O   UNL     1      -4.308   9.672  26.796  0.00  0.00    -0.343 OA
ATOM     22  C   UNL     1      -5.715   9.917  27.046  0.00  0.00    +0.198 C 
ENDBRANCH   7  21
ENDBRANCH   4   5
BRANCH   4  23
ATOM     23  O   UNL     1      -1.952  11.162  32.118  0.00  0.00    -0.387 OA
ATOM     24  H   UNL     1      -1.317  11.877  32.043  0.00  0.00    +0.210 HD
ENDBRANCH   4  23
ENDBRANCH   1   4
BRANCH   1  25
ATOM     25  C   UNL     1      -4.216  12.872  32.504  0.00  0.00    +0.141 C 
BRANCH  25  28
ATOM     26  C   UNL     1      -4.063  15.005  31.265  0.00  0.00    +0.401 C 
ATOM     27  O   UNL     1      -2.830  15.039  31.290  0.00  0.00    -0.226 OA
ATOM     28  N   UNL     1      -4.793  14.032  31.813  0.00  0.00    -0.279 N 
ATOM     29  H   UNL     1      -5.799  14.097  31.750  0.00  0.00    +0.152 HD
BRANCH  26  30
ATOM     30  O   UNL     1      -4.774  16.064  30.619  0.00  0.00    -0.444 OA
BRANCH  30  31
ATOM     31  C   UNL     1      -6.177  15.786  30.652  0.00  0.00    +0.292 C 
BRANCH  31  33
ATOM     32  N   UNL     1      -7.105  13.723  29.637  0.00  0.00    -0.131 NA
ATOM     33  C   UNL     1      -6.570  14.977  29.484  0.00  0.00    +0.120 A 
ATOM     34  C   UNL     1      -6.491  15.271  28.143  0.00  0.00    +0.139 A 
ATOM     35  N   UNL     1      -6.965  14.148  27.530  0.00  0.00    -0.226 N 
ATOM     36  N   UNL     1      -7.354  13.228  28.432  0.00  0.00    -0.063 NA
BRANCH  35  37
ATOM     37  C   UNL     1      -7.124  13.891  26.109  0.00  0.00    +0.305 C 
BRANCH  37  38
ATOM     38  O   UNL     1      -5.921  14.245  25.431  0.00  0.00    -0.353 OA
BRANCH  38  39
ATOM     39  C   UNL     1      -4.961  13.198  25.484  0.00  0.00    +0.197 C 
BRANCH  39  40
ATOM     40  C   UNL     1      -4.437  12.994  24.088  0.00  0.00    -0.022 A 
ATOM     41  C   UNL     1      -3.725  11.833  23.757  0.00  0.00    +0.006 A 
ATOM     42  C   UNL     1      -3.207  11.662  22.473  0.00  0.00    +0.000 A 
ATOM     43  C   UNL     1      -3.388  12.653  21.510  0.00  0.00    +0.000 A 
ATOM     44  C   UNL     1      -4.085  13.816  21.829  0.00  0.00    +0.000 A 
ATOM     45  C   UNL     1      -4.604  13.988  23.114  0.00  0.00    +0.006 A 
ENDBRANCH  39  40
ENDBRANCH  38  39
ENDBRANCH  37  38
ENDBRANCH  35  37
ENDBRANCH  31  33
ENDBRANCH  30  31
ENDBRANCH  26  30
ENDBRANCH  25  28
ENDBRANCH   1  25
TORSDOF 17
