REMARK VINA RESULT:    -4.951      4.687     11.558
REMARK INTER + INTRA:         -11.702
REMARK INTER:                  -9.160
REMARK INTRA:                  -2.542
REMARK UNBOUND:                -2.844
REMARK  Name = lig_assembled_44.pdb
REMARK  17 active torsions:
REMARK  status: ('A' for Active; 'I' for Inactive)
REMARK    1  A    between atoms: _2  and  _9
REMARK    2  A    between atoms: _4  and  _19
REMARK    3  A    between atoms: _6  and  _7
REMARK    4  A    between atoms: _6  and  _19
REMARK    5  A    between atoms: _9  and  _10
REMARK    6  A    between atoms: _15  and  _35
REMARK    7  A    between atoms: _17  and  _23
REMARK    8  A    between atoms: _18  and  _22
REMARK    9  A    between atoms: _22  and  _23
REMARK   10  A    between atoms: _25  and  _26
REMARK   11  A    between atoms: _27  and  _28
REMARK   12  A    between atoms: _29  and  _31
REMARK   13  A    between atoms: _31  and  _32
REMARK   14  A    between atoms: _31  and  _33
REMARK   15  A    between atoms: _33  and  _34
REMARK   16  A    between atoms: _33  and  _35
REMARK   17  A    between atoms: _36  and  _38
REMARK                            x       y       z     vdW  Elec       q    Type
REMARK                         _______ _______ _______ _____ _____    ______ ____
ROOT
ATOM      1  C   UNL     1      -2.969   9.567  14.175  0.00  0.00    +0.163 C 
ENDROOT
BRANCH   1   2
ATOM      2  O   UNL     1      -1.636   9.300  13.708  0.00  0.00    -0.388 OA
ATOM      3  H   UNL     1      -1.675   8.926  12.825  0.00  0.00    +0.210 HD
ENDBRANCH   1   2
BRANCH   1   4
ATOM      4  C   UNL     1      -3.554   8.316  14.823  0.00  0.00    +0.141 C 
BRANCH   4   7
ATOM      5  C   UNL     1      -4.865   8.909  16.832  0.00  0.00    +0.401 C 
ATOM      6  O   UNL     1      -5.875   9.219  16.197  0.00  0.00    -0.226 OA
ATOM      7  N   UNL     1      -3.733   8.483  16.270  0.00  0.00    -0.279 N 
ATOM      8  H   UNL     1      -2.954   8.261  16.875  0.00  0.00    +0.152 HD
BRANCH   5   9
ATOM      9  O   UNL     1      -4.883   9.009  18.258  0.00  0.00    -0.444 OA
BRANCH   9  10
ATOM     10  C   UNL     1      -5.821  10.013  18.655  0.00  0.00    +0.292 C 
BRANCH  10  12
ATOM     11  N   UNL     1      -4.053  11.311  19.810  0.00  0.00    -0.131 NA
ATOM     12  C   UNL     1      -5.309  10.765  19.817  0.00  0.00    +0.120 A 
ATOM     13  C   UNL     1      -5.923  11.062  21.011  0.00  0.00    +0.137 A 
ATOM     14  N   UNL     1      -5.019  11.856  21.655  0.00  0.00    -0.247 N 
ATOM     15  N   UNL     1      -3.881  11.970  20.948  0.00  0.00    -0.065 NA
BRANCH  14  16
ATOM     16  C   UNL     1      -5.167  12.533  22.929  0.00  0.00    +0.180 C 
BRANCH  16  17
ATOM     17  C   UNL     1      -4.348  11.866  24.008  0.00  0.00    -0.026 A 
ATOM     18  C   UNL     1      -4.557  10.516  24.334  0.00  0.00    +0.006 A 
ATOM     19  C   UNL     1      -3.810   9.907  25.344  0.00  0.00    +0.015 A 
ATOM     20  C   UNL     1      -2.849  10.643  26.034  0.00  0.00    +0.018 A 
ATOM     21 BR   UNL     1      -1.826   9.811  27.389  0.00  0.00    -0.050 Br
ATOM     22  C   UNL     1      -2.636  11.986  25.733  0.00  0.00    +0.015 A 
ATOM     23  C   UNL     1      -3.388  12.598  24.726  0.00  0.00    +0.006 A 
ENDBRANCH  16  17
ENDBRANCH  14  16
ENDBRANCH  10  12
ENDBRANCH   9  10
ENDBRANCH   5   9
ENDBRANCH   4   7
ENDBRANCH   1   4
BRANCH   1  24
ATOM     24  C   UNL     1      -3.877  10.019  13.018  0.00  0.00    +0.175 C 
BRANCH  24  25
ATOM     25  C   UNL     1      -3.554  11.447  12.554  0.00  0.00    +0.176 C 
ATOM     26  O   UNL     1      -2.256  11.422  11.899  0.00  0.00    -0.332 OA
ATOM     27  C   UNL     1      -1.826  12.686  11.294  0.00  0.00    +0.277 C 
ATOM     28  C   UNL     1      -1.862  13.827  12.341  0.00  0.00    +0.110 C 
ATOM     29  C   UNL     1      -3.212  13.873  13.086  0.00  0.00    +0.143 C 
ATOM     30  C   UNL     1      -3.563  12.505  13.673  0.00  0.00    +0.133 C 
BRANCH  30  31
ATOM     31  N   UNL     1      -4.891  12.541  14.305  0.00  0.00    -0.308 N 
ATOM     32  H   UNL     1      -5.700  12.583  13.701  0.00  0.00    +0.149 HD
ATOM     33  C   UNL     1      -5.097  12.521  15.625  0.00  0.00    +0.210 C 
ATOM     34  C   UNL     1      -3.843  12.484  16.518  0.00  0.00    +0.109 C 
ATOM     35  O   UNL     1      -6.222  12.537  16.126  0.00  0.00    -0.276 OA
ENDBRANCH  30  31
BRANCH  27  36
ATOM     36  C   UNL     1      -2.729  13.055  10.098  0.00  0.00    +0.414 C 
ATOM     37  O   UNL     1      -3.139  12.179   9.337  0.00  0.00    -0.240 OA
ATOM     38  O   UNL     1      -3.048  14.227   9.895  0.00  0.00    -0.240 OA
ENDBRANCH  27  36
BRANCH  27  39
ATOM     39  O   UNL     1      -0.457  12.524  10.840  0.00  0.00    -0.343 OA
ATOM     40  C   UNL     1       0.350  13.728  10.889  0.00  0.00    +0.198 C 
ENDBRANCH  27  39
BRANCH  29  41
ATOM     41  O   UNL     1      -3.148  14.835  14.140  0.00  0.00    -0.390 OA
ATOM     42  H   UNL     1      -3.038  15.713  13.767  0.00  0.00    +0.210 HD
ENDBRANCH  29  41
ENDBRANCH  24  25
BRANCH  24  43
ATOM     43  O   UNL     1      -5.261   9.925  13.407  0.00  0.00    -0.387 OA
ATOM     44  H   UNL     1      -5.672   9.186  12.952  0.00  0.00    +0.210 HD
ENDBRANCH  24  43
ENDBRANCH   1  24
TORSDOF 15
