REMARK VINA RESULT:    -4.932      3.147      8.877
REMARK INTER + INTRA:         -11.629
REMARK INTER:                  -8.575
REMARK INTRA:                  -3.054
REMARK UNBOUND:                -3.093
REMARK  Name = lig_assembled_80.pdb
REMARK  16 active torsions:
REMARK  status: ('A' for Active; 'I' for Inactive)
REMARK    1  A    between atoms: _2  and  _10
REMARK    2  A    between atoms: _5  and  _24
REMARK    3  A    between atoms: _7  and  _8
REMARK    4  A    between atoms: _7  and  _24
REMARK    5  A    between atoms: _20  and  _40
REMARK    6  A    between atoms: _22  and  _28
REMARK    7  A    between atoms: _23  and  _27
REMARK    8  A    between atoms: _27  and  _28
REMARK    9  A    between atoms: _30  and  _31
REMARK   10  A    between atoms: _32  and  _33
REMARK   11  A    between atoms: _34  and  _36
REMARK   12  A    between atoms: _36  and  _37
REMARK   13  A    between atoms: _36  and  _38
REMARK   14  A    between atoms: _38  and  _39
REMARK   15  A    between atoms: _38  and  _40
REMARK   16  A    between atoms: _41  and  _43
REMARK                            x       y       z     vdW  Elec       q    Type
REMARK                         _______ _______ _______ _____ _____    ______ ____
ROOT
ATOM      1  C   UNL     1      -5.184  13.398  31.001  0.00  0.00    +0.141 C 
ENDROOT
BRANCH   1   4
ATOM      2  C   UNL     1      -6.367  15.456  30.315  0.00  0.00    +0.401 C 
ATOM      3  O   UNL     1      -5.479  16.213  30.715  0.00  0.00    -0.226 OA
ATOM      4  N   UNL     1      -6.315  14.127  30.414  0.00  0.00    -0.279 N 
ATOM      5  H   UNL     1      -7.098  13.592  30.065  0.00  0.00    +0.152 HD
BRANCH   2   6
ATOM      6  O   UNL     1      -7.535  16.016  29.708  0.00  0.00    -0.444 OA
BRANCH   6   7
ATOM      7  C   UNL     1      -7.147  16.923  28.673  0.00  0.00    +0.292 C 
BRANCH   7   9
ATOM      8  N   UNL     1      -6.941  16.922  26.217  0.00  0.00    -0.131 NA
ATOM      9  C   UNL     1      -7.024  16.213  27.384  0.00  0.00    +0.120 A 
ATOM     10  C   UNL     1      -6.966  14.865  27.107  0.00  0.00    +0.138 A 
ATOM     11  N   UNL     1      -6.904  14.816  25.740  0.00  0.00    -0.239 N 
ATOM     12  N   UNL     1      -6.852  16.060  25.214  0.00  0.00    -0.065 NA
BRANCH  11  13
ATOM     13  C   UNL     1      -6.716  13.665  24.849  0.00  0.00    +0.195 C 
ATOM     14  C   UNL     1      -6.835  14.145  23.410  0.00  0.00    +0.041 C 
ATOM     15  C   UNL     1      -6.941  12.976  22.452  0.00  0.00    +0.039 C 
ATOM     16  C   UNL     1      -5.573  12.481  22.102  0.00  0.00    -0.026 A 
ATOM     17  C   UNL     1      -4.714  11.914  23.046  0.00  0.00    +0.037 A 
ATOM     18  C   UNL     1      -3.495  11.361  22.618  0.00  0.00    +0.023 A 
ATOM     19  C   UNL     1      -3.079  11.473  21.293  0.00  0.00    +0.002 A 
ATOM     20  C   UNL     1      -3.898  12.103  20.368  0.00  0.00    +0.000 A 
ATOM     21  N   UNL     1      -4.913  11.912  24.437  0.00  0.00    -0.284 N 
ATOM     22  H   UNL     1      -4.194  11.428  24.967  0.00  0.00    +0.155 HD
ATOM     23  C   UNL     1      -5.147  12.579  20.764  0.00  0.00    +0.005 A 
ATOM     24  C   UNL     1      -5.485  12.856  25.241  0.00  0.00    +0.242 C 
ATOM     25  O   UNL     1      -4.995  12.933  26.374  0.00  0.00    -0.273 OA
ENDBRANCH  11  13
ENDBRANCH   7   9
ENDBRANCH   6   7
ENDBRANCH   2   6
ENDBRANCH   1   4
BRANCH   1  26
ATOM     26  C   UNL     1      -4.288  12.782  29.933  0.00  0.00    +0.163 C 
BRANCH  26  27
ATOM     27  O   UNL     1      -2.941  12.673  30.423  0.00  0.00    -0.388 OA
ATOM     28  H   UNL     1      -2.944  12.218  31.269  0.00  0.00    +0.210 HD
ENDBRANCH  26  27
BRANCH  26  29
ATOM     29  C   UNL     1      -4.840  11.403  29.531  0.00  0.00    +0.175 C 
BRANCH  29  30
ATOM     30  C   UNL     1      -3.770  10.523  28.870  0.00  0.00    +0.176 C 
ATOM     31  O   UNL     1      -4.237  10.176  27.537  0.00  0.00    -0.332 OA
ATOM     32  C   UNL     1      -3.291   9.419  26.711  0.00  0.00    +0.277 C 
ATOM     33  C   UNL     1      -2.828   8.141  27.452  0.00  0.00    +0.110 C 
ATOM     34  C   UNL     1      -2.351   8.455  28.886  0.00  0.00    +0.143 C 
ATOM     35  C   UNL     1      -3.410   9.247  29.654  0.00  0.00    +0.133 C 
BRANCH  35  36
ATOM     36  N   UNL     1      -2.910   9.615  30.988  0.00  0.00    -0.308 N 
ATOM     37  H   UNL     1      -2.073  10.179  31.039  0.00  0.00    +0.149 HD
ATOM     38  C   UNL     1      -3.490   9.254  32.136  0.00  0.00    +0.210 C 
ATOM     39  C   UNL     1      -4.749   8.373  32.025  0.00  0.00    +0.109 C 
ATOM     40  O   UNL     1      -3.057   9.589  33.239  0.00  0.00    -0.276 OA
ENDBRANCH  35  36
BRANCH  32  41
ATOM     41  C   UNL     1      -2.064  10.282  26.354  0.00  0.00    +0.414 C 
ATOM     42  O   UNL     1      -0.927   9.847  26.531  0.00  0.00    -0.240 OA
ATOM     43  O   UNL     1      -2.210  11.414  25.890  0.00  0.00    -0.240 OA
ENDBRANCH  32  41
BRANCH  34  44
ATOM     44  O   UNL     1      -2.078   7.238  29.580  0.00  0.00    -0.390 OA
ATOM     45  H   UNL     1      -2.799   6.620  29.440  0.00  0.00    +0.210 HD
ENDBRANCH  34  44
BRANCH  32  46
ATOM     46  O   UNL     1      -3.977   9.020  25.496  0.00  0.00    -0.343 OA
ATOM     47  C   UNL     1      -4.129   7.588  25.321  0.00  0.00    +0.198 C 
ENDBRANCH  32  46
ENDBRANCH  29  30
BRANCH  29  48
ATOM     48  O   UNL     1      -5.970  11.558  28.649  0.00  0.00    -0.387 OA
ATOM     49  H   UNL     1      -5.898  10.934  27.924  0.00  0.00    +0.210 HD
ENDBRANCH  29  48
ENDBRANCH  26  29
ENDBRANCH   1  26
TORSDOF 14
