REMARK VINA RESULT:    -4.921      4.610      9.863
REMARK INTER + INTRA:         -10.330
REMARK INTER:                  -7.753
REMARK INTRA:                  -2.577
REMARK UNBOUND:                -1.813
REMARK  Name = lig_assembled_40.pdb
REMARK  17 active torsions:
REMARK  status: ('A' for Active; 'I' for Inactive)
REMARK    1  A    between atoms: _2  and  _9
REMARK    2  A    between atoms: _4  and  _19
REMARK    3  A    between atoms: _6  and  _7
REMARK    4  A    between atoms: _6  and  _19
REMARK    5  A    between atoms: _12  and  _13
REMARK    6  A    between atoms: _15  and  _35
REMARK    7  A    between atoms: _17  and  _23
REMARK    8  A    between atoms: _18  and  _22
REMARK    9  A    between atoms: _22  and  _23
REMARK   10  A    between atoms: _25  and  _26
REMARK   11  A    between atoms: _27  and  _28
REMARK   12  A    between atoms: _29  and  _31
REMARK   13  A    between atoms: _31  and  _32
REMARK   14  A    between atoms: _31  and  _33
REMARK   15  A    between atoms: _33  and  _34
REMARK   16  A    between atoms: _33  and  _35
REMARK   17  A    between atoms: _36  and  _38
REMARK                            x       y       z     vdW  Elec       q    Type
REMARK                         _______ _______ _______ _____ _____    ______ ____
ROOT
ATOM      1  C   UNL     1      -4.287  10.483  28.221  0.00  0.00    +0.163 C 
ENDROOT
BRANCH   1   2
ATOM      2  O   UNL     1      -5.122  11.494  28.809  0.00  0.00    -0.388 OA
ATOM      3  H   UNL     1      -4.949  11.544  29.753  0.00  0.00    +0.210 HD
ENDBRANCH   1   2
BRANCH   1   4
ATOM      4  C   UNL     1      -3.621   9.655  29.316  0.00  0.00    +0.141 C 
BRANCH   4   7
ATOM      5  C   UNL     1      -2.831  10.292  31.568  0.00  0.00    +0.401 C 
ATOM      6  O   UNL     1      -3.445   9.390  32.142  0.00  0.00    -0.226 OA
ATOM      7  N   UNL     1      -2.861  10.494  30.251  0.00  0.00    -0.279 N 
ATOM      8  H   UNL     1      -2.330  11.267  29.874  0.00  0.00    +0.152 HD
BRANCH   5   9
ATOM      9  O   UNL     1      -2.034  11.192  32.344  0.00  0.00    -0.444 OA
BRANCH   9  10
ATOM     10  C   UNL     1      -2.887  12.033  33.126  0.00  0.00    +0.292 C 
BRANCH  10  12
ATOM     11  N   UNL     1      -2.333  14.248  32.173  0.00  0.00    -0.131 NA
ATOM     12  C   UNL     1      -3.241  13.250  32.371  0.00  0.00    +0.121 A 
ATOM     13  C   UNL     1      -4.425  13.591  31.763  0.00  0.00    +0.143 A 
ATOM     14  N   UNL     1      -4.183  14.809  31.168  0.00  0.00    -0.220 N 
ATOM     15  N   UNL     1      -2.913  15.197  31.449  0.00  0.00    -0.060 NA
BRANCH  14  16
ATOM     16  C   UNL     1      -5.045  15.578  30.343  0.00  0.00    +0.067 A 
ATOM     17  C   UNL     1      -5.990  14.957  29.518  0.00  0.00    +0.028 A 
ATOM     18  C   UNL     1      -6.784  15.723  28.660  0.00  0.00    +0.005 A 
ATOM     19  C   UNL     1      -6.646  17.114  28.614  0.00  0.00    -0.050 A 
ATOM     20  C   UNL     1      -5.726  17.736  29.466  0.00  0.00    +0.005 A 
ATOM     21  C   UNL     1      -7.463  17.935  27.661  0.00  0.00    +0.044 C 
ATOM     22  C   UNL     1      -4.929  16.976  30.327  0.00  0.00    +0.028 A 
ENDBRANCH  14  16
ENDBRANCH  10  12
ENDBRANCH   9  10
ENDBRANCH   5   9
ENDBRANCH   4   7
ENDBRANCH   1   4
BRANCH   1  23
ATOM     23  C   UNL     1      -3.207  11.115  27.326  0.00  0.00    +0.175 C 
BRANCH  23  24
ATOM     24  C   UNL     1      -3.610  11.111  25.844  0.00  0.00    +0.176 C 
ATOM     25  O   UNL     1      -4.661  12.099  25.664  0.00  0.00    -0.332 OA
ATOM     26  C   UNL     1      -5.102  12.312  24.282  0.00  0.00    +0.277 C 
ATOM     27  C   UNL     1      -5.529  10.970  23.638  0.00  0.00    +0.110 C 
ATOM     28  C   UNL     1      -4.455   9.878  23.832  0.00  0.00    +0.143 C 
ATOM     29  C   UNL     1      -4.069   9.744  25.305  0.00  0.00    +0.133 C 
BRANCH  29  30
ATOM     30  N   UNL     1      -2.984   8.763  25.466  0.00  0.00    -0.308 N 
ATOM     31  H   UNL     1      -2.068   9.011  25.118  0.00  0.00    +0.149 HD
ATOM     32  C   UNL     1      -3.130   7.566  26.041  0.00  0.00    +0.210 C 
ATOM     33  C   UNL     1      -4.544   7.208  26.538  0.00  0.00    +0.109 C 
ATOM     34  O   UNL     1      -2.200   6.771  26.176  0.00  0.00    -0.276 OA
ENDBRANCH  29  30
BRANCH  26  35
ATOM     35  C   UNL     1      -3.977  12.952  23.442  0.00  0.00    +0.414 C 
ATOM     36  O   UNL     1      -3.922  12.757  22.228  0.00  0.00    -0.240 OA
ATOM     37  O   UNL     1      -3.126  13.664  23.977  0.00  0.00    -0.240 OA
ENDBRANCH  26  35
BRANCH  28  38
ATOM     38  O   UNL     1      -4.951   8.625  23.359  0.00  0.00    -0.390 OA
ATOM     39  H   UNL     1      -4.520   8.402  22.531  0.00  0.00    +0.210 HD
ENDBRANCH  28  38
BRANCH  26  40
ATOM     40  O   UNL     1      -6.254  13.193  24.309  0.00  0.00    -0.343 OA
ATOM     41  C   UNL     1      -6.766  13.492  25.632  0.00  0.00    +0.198 C 
ENDBRANCH  26  40
ENDBRANCH  23  24
BRANCH  23  42
ATOM     42  O   UNL     1      -1.952  10.428  27.501  0.00  0.00    -0.387 OA
ATOM     43  H   UNL     1      -1.343  10.690  26.807  0.00  0.00    +0.210 HD
ENDBRANCH  23  42
ENDBRANCH   1  23
TORSDOF 14
