REMARK VINA RESULT:    -4.799      2.979      6.272
REMARK INTER + INTRA:         -11.636
REMARK INTER:                  -8.590
REMARK INTRA:                  -3.046
REMARK UNBOUND:                -3.049
REMARK  Name = lig_assembled_28.pdb
REMARK  17 active torsions:
REMARK  status: ('A' for Active; 'I' for Inactive)
REMARK    1  A    between atoms: _2  and  _9
REMARK    2  A    between atoms: _4  and  _22
REMARK    3  A    between atoms: _6  and  _7
REMARK    4  A    between atoms: _6  and  _22
REMARK    5  A    between atoms: _9  and  _10
REMARK    6  A    between atoms: _18  and  _38
REMARK    7  A    between atoms: _20  and  _26
REMARK    8  A    between atoms: _21  and  _25
REMARK    9  A    between atoms: _25  and  _26
REMARK   10  A    between atoms: _28  and  _29
REMARK   11  A    between atoms: _30  and  _31
REMARK   12  A    between atoms: _32  and  _34
REMARK   13  A    between atoms: _34  and  _35
REMARK   14  A    between atoms: _34  and  _36
REMARK   15  A    between atoms: _36  and  _37
REMARK   16  A    between atoms: _36  and  _38
REMARK   17  A    between atoms: _39  and  _41
REMARK                            x       y       z     vdW  Elec       q    Type
REMARK                         _______ _______ _______ _____ _____    ______ ____
ROOT
ATOM      1  C   UNL     1      -2.448  10.166  27.052  0.00  0.00    +0.163 C 
ENDROOT
BRANCH   1   2
ATOM      2  O   UNL     1      -1.232  10.038  26.298  0.00  0.00    -0.388 OA
ATOM      3  H   UNL     1      -1.176  10.751  25.656  0.00  0.00    +0.210 HD
ENDBRANCH   1   2
BRANCH   1   4
ATOM      4  C   UNL     1      -2.270   9.554  28.437  0.00  0.00    +0.141 C 
BRANCH   4   7
ATOM      5  C   UNL     1      -3.250   9.926  30.675  0.00  0.00    +0.401 C 
ATOM      6  O   UNL     1      -3.158   8.744  31.015  0.00  0.00    -0.226 OA
ATOM      7  N   UNL     1      -2.865  10.392  29.486  0.00  0.00    -0.279 N 
ATOM      8  H   UNL     1      -2.989  11.376  29.297  0.00  0.00    +0.152 HD
BRANCH   5   9
ATOM      9  O   UNL     1      -3.803  10.872  31.593  0.00  0.00    -0.444 OA
BRANCH   9  10
ATOM     10  C   UNL     1      -2.748  11.623  32.200  0.00  0.00    +0.292 C 
BRANCH  10  12
ATOM     11  N   UNL     1      -2.253  13.911  31.386  0.00  0.00    -0.131 NA
ATOM     12  C   UNL     1      -3.037  13.067  32.124  0.00  0.00    +0.120 A 
ATOM     13  C   UNL     1      -4.065  13.787  32.689  0.00  0.00    +0.137 A 
ATOM     14  N   UNL     1      -3.910  15.045  32.179  0.00  0.00    -0.247 N 
ATOM     15  N   UNL     1      -2.790  15.124  31.436  0.00  0.00    -0.065 NA
BRANCH  14  16
ATOM     16  C   UNL     1      -4.788  16.206  32.248  0.00  0.00    +0.180 C 
BRANCH  16  17
ATOM     17  C   UNL     1      -5.156  16.771  30.896  0.00  0.00    -0.022 A 
ATOM     18  C   UNL     1      -5.861  15.982  29.969  0.00  0.00    +0.055 A 
ATOM     19  C   UNL     1      -6.274  16.577  28.796  0.00  0.00    +0.167 A 
ATOM     20  O   UNL     1      -7.010  15.978  27.820  0.00  0.00    -0.453 OA
ATOM     21  C   UNL     1      -7.239  17.094  26.935  0.00  0.00    +0.466 C 
ATOM     22  O   UNL     1      -6.518  18.285  27.316  0.00  0.00    -0.453 OA
ATOM     23  C   UNL     1      -5.992  17.889  28.507  0.00  0.00    +0.166 A 
ATOM     24  C   UNL     1      -5.274  18.684  29.375  0.00  0.00    +0.050 A 
ATOM     25  C   UNL     1      -4.859  18.118  30.584  0.00  0.00    +0.009 A 
ENDBRANCH  16  17
ENDBRANCH  14  16
ENDBRANCH  10  12
ENDBRANCH   9  10
ENDBRANCH   5   9
ENDBRANCH   4   7
ENDBRANCH   1   4
BRANCH   1  26
ATOM     26  C   UNL     1      -3.618   9.473  26.331  0.00  0.00    +0.175 C 
BRANCH  26  27
ATOM     27  C   UNL     1      -4.444  10.459  25.491  0.00  0.00    +0.176 C 
ATOM     28  O   UNL     1      -3.625  10.884  24.367  0.00  0.00    -0.332 OA
ATOM     29  C   UNL     1      -4.290  11.752  23.391  0.00  0.00    +0.277 C 
ATOM     30  C   UNL     1      -4.898  12.991  24.094  0.00  0.00    +0.110 C 
ATOM     31  C   UNL     1      -5.751  12.590  25.315  0.00  0.00    +0.143 C 
ATOM     32  C   UNL     1      -4.963  11.686  26.263  0.00  0.00    +0.133 C 
BRANCH  32  33
ATOM     33  N   UNL     1      -5.814  11.241  27.378  0.00  0.00    -0.308 N 
ATOM     34  H   UNL     1      -6.472  10.495  27.200  0.00  0.00    +0.149 HD
ATOM     35  C   UNL     1      -5.774  11.758  28.609  0.00  0.00    +0.210 C 
ATOM     36  C   UNL     1      -4.779  12.911  28.840  0.00  0.00    +0.109 C 
ATOM     37  O   UNL     1      -6.489  11.355  29.527  0.00  0.00    -0.276 OA
ENDBRANCH  32  33
BRANCH  29  38
ATOM     38  C   UNL     1      -5.402  10.985  22.645  0.00  0.00    +0.414 C 
ATOM     39  O   UNL     1      -5.252   9.798  22.359  0.00  0.00    -0.240 OA
ATOM     40  O   UNL     1      -6.448  11.553  22.330  0.00  0.00    -0.240 OA
ENDBRANCH  29  38
BRANCH  29  41
ATOM     41  O   UNL     1      -3.291  12.209  22.442  0.00  0.00    -0.343 OA
ATOM     42  C   UNL     1      -3.546  13.515  21.866  0.00  0.00    +0.198 C 
ENDBRANCH  29  41
BRANCH  31  43
ATOM     43  O   UNL     1      -6.165  13.762  26.019  0.00  0.00    -0.390 OA
ATOM     44  H   UNL     1      -6.069  13.620  26.963  0.00  0.00    +0.210 HD
ENDBRANCH  31  43
ENDBRANCH  26  27
BRANCH  26  45
ATOM     45  O   UNL     1      -4.464   8.805  27.287  0.00  0.00    -0.387 OA
ATOM     46  H   UNL     1      -5.232   9.350  27.472  0.00  0.00    +0.210 HD
ENDBRANCH  26  45
ENDBRANCH   1  26
TORSDOF 15
