REMARK VINA RESULT:    -4.553      4.002     10.097
REMARK INTER + INTRA:         -11.656
REMARK INTER:                  -9.097
REMARK INTRA:                  -2.558
REMARK UNBOUND:                -3.243
REMARK  Name = lig_assembled_78.pdb
REMARK  18 active torsions:
REMARK  status: ('A' for Active; 'I' for Inactive)
REMARK    1  A    between atoms: _2  and  _9
REMARK    2  A    between atoms: _4  and  _21
REMARK    3  A    between atoms: _6  and  _7
REMARK    4  A    between atoms: _6  and  _21
REMARK    5  A    between atoms: _9  and  _41
REMARK    6  A    between atoms: _10  and  _41
REMARK    7  A    between atoms: _17  and  _37
REMARK    8  A    between atoms: _19  and  _25
REMARK    9  A    between atoms: _20  and  _24
REMARK   10  A    between atoms: _24  and  _25
REMARK   11  A    between atoms: _27  and  _28
REMARK   12  A    between atoms: _29  and  _30
REMARK   13  A    between atoms: _31  and  _33
REMARK   14  A    between atoms: _33  and  _34
REMARK   15  A    between atoms: _33  and  _35
REMARK   16  A    between atoms: _35  and  _36
REMARK   17  A    between atoms: _35  and  _37
REMARK   18  A    between atoms: _38  and  _40
REMARK                            x       y       z     vdW  Elec       q    Type
REMARK                         _______ _______ _______ _____ _____    ______ ____
ROOT
ATOM      1  C   UNL     1      -5.648  11.063  16.724  0.00  0.00    +0.163 C 
ENDROOT
BRANCH   1   2
ATOM      2  O   UNL     1      -4.720  12.123  16.439  0.00  0.00    -0.388 OA
ATOM      3  H   UNL     1      -4.886  12.465  15.557  0.00  0.00    +0.210 HD
ENDBRANCH   1   2
BRANCH   1   4
ATOM      4  C   UNL     1      -5.007   9.688  16.468  0.00  0.00    +0.175 C 
BRANCH   4   5
ATOM      5  C   UNL     1      -4.080   9.701  15.244  0.00  0.00    +0.176 C 
ATOM      6  O   UNL     1      -4.780  10.372  14.160  0.00  0.00    -0.332 OA
ATOM      7  C   UNL     1      -4.004  10.573  12.933  0.00  0.00    +0.277 C 
ATOM      8  C   UNL     1      -3.428   9.227  12.429  0.00  0.00    +0.110 C 
ATOM      9  C   UNL     1      -2.702   8.462  13.555  0.00  0.00    +0.143 C 
ATOM     10  C   UNL     1      -3.599   8.312  14.785  0.00  0.00    +0.133 C 
BRANCH  10  11
ATOM     11  N   UNL     1      -2.866   7.658  15.881  0.00  0.00    -0.308 N 
ATOM     12  H   UNL     1      -2.096   8.161  16.299  0.00  0.00    +0.149 HD
ATOM     13  C   UNL     1      -3.153   6.445  16.359  0.00  0.00    +0.210 C 
ATOM     14  C   UNL     1      -4.316   5.694  15.684  0.00  0.00    +0.109 C 
ATOM     15  O   UNL     1      -2.531   5.928  17.288  0.00  0.00    -0.276 OA
ENDBRANCH  10  11
BRANCH   7  16
ATOM     16  C   UNL     1      -2.850  11.570  13.172  0.00  0.00    +0.414 C 
ATOM     17  O   UNL     1      -2.950  12.437  14.039  0.00  0.00    -0.240 OA
ATOM     18  O   UNL     1      -1.821  11.506  12.499  0.00  0.00    -0.240 OA
ENDBRANCH   7  16
BRANCH   7  19
ATOM     19  O   UNL     1      -4.898  11.097  11.917  0.00  0.00    -0.343 OA
ATOM     20  C   UNL     1      -4.703  10.549  10.589  0.00  0.00    +0.198 C 
ENDBRANCH   7  19
BRANCH   9  21
ATOM     21  O   UNL     1      -2.322   7.166  13.090  0.00  0.00    -0.390 OA
ATOM     22  H   UNL     1      -3.061   6.561  13.185  0.00  0.00    +0.210 HD
ENDBRANCH   9  21
ENDBRANCH   4   5
BRANCH   4  23
ATOM     23  O   UNL     1      -6.030   8.686  16.306  0.00  0.00    -0.387 OA
ATOM     24  H   UNL     1      -6.574   8.903  15.546  0.00  0.00    +0.210 HD
ENDBRANCH   4  23
ENDBRANCH   1   4
BRANCH   1  25
ATOM     25  C   UNL     1      -6.108  11.149  18.175  0.00  0.00    +0.141 C 
BRANCH  25  28
ATOM     26  C   UNL     1      -5.048  10.055  20.121  0.00  0.00    +0.401 C 
ATOM     27  O   UNL     1      -4.732  11.115  20.664  0.00  0.00    -0.226 OA
ATOM     28  N   UNL     1      -5.687   9.977  18.953  0.00  0.00    -0.279 N 
ATOM     29  H   UNL     1      -5.894   9.060  18.583  0.00  0.00    +0.152 HD
BRANCH  26  30
ATOM     30  O   UNL     1      -4.714   8.820  20.760  0.00  0.00    -0.444 OA
BRANCH  30  31
ATOM     31  C   UNL     1      -5.662   8.547  21.795  0.00  0.00    +0.292 C 
BRANCH  31  33
ATOM     32  N   UNL     1      -4.081   7.805  23.554  0.00  0.00    -0.131 NA
ATOM     33  C   UNL     1      -5.031   8.691  23.120  0.00  0.00    +0.120 A 
ATOM     34  C   UNL     1      -5.235   9.643  24.095  0.00  0.00    +0.139 A 
ATOM     35  N   UNL     1      -4.338   9.314  25.067  0.00  0.00    -0.230 N 
ATOM     36  N   UNL     1      -3.680   8.183  24.760  0.00  0.00    -0.064 NA
BRANCH  35  37
ATOM     37  C   UNL     1      -4.104   9.962  26.335  0.00  0.00    +0.316 C 
BRANCH  37  38
ATOM     38  S   UNL     1      -2.956  11.311  26.241  0.00  0.00    +0.017 S 
ATOM     39  O   UNL     1      -2.808  11.926  27.544  0.00  0.00    -0.168 OA
ATOM     40  O   UNL     1      -1.795  10.858  25.493  0.00  0.00    -0.168 OA
BRANCH  38  41
ATOM     41  C   UNL     1      -3.786  12.517  25.227  0.00  0.00    +0.090 A 
ATOM     42  C   UNL     1      -5.010  13.042  25.654  0.00  0.00    +0.027 A 
ATOM     43  C   UNL     1      -5.650  14.005  24.876  0.00  0.00    +0.002 A 
ATOM     44  C   UNL     1      -5.062  14.453  23.691  0.00  0.00    +0.000 A 
ATOM     45  C   UNL     1      -3.831  13.940  23.281  0.00  0.00    +0.002 A 
ATOM     46  C   UNL     1      -3.186  12.968  24.047  0.00  0.00    +0.027 A 
ENDBRANCH  38  41
ENDBRANCH  37  38
ENDBRANCH  35  37
ENDBRANCH  31  33
ENDBRANCH  30  31
ENDBRANCH  26  30
ENDBRANCH  25  28
ENDBRANCH   1  25
TORSDOF 16
