REMARK VINA RESULT:    -4.473      0.000      0.000
REMARK INTER + INTRA:         -12.246
REMARK INTER:                  -9.542
REMARK INTRA:                  -2.704
REMARK UNBOUND:                -3.458
REMARK  Name = lig_assembled_43.pdb
REMARK  20 active torsions:
REMARK  status: ('A' for Active; 'I' for Inactive)
REMARK    1  A    between atoms: _2  and  _9
REMARK    2  A    between atoms: _4  and  _18
REMARK    3  A    between atoms: _6  and  _7
REMARK    4  A    between atoms: _6  and  _18
REMARK    5  A    between atoms: _9  and  _10
REMARK    6  A    between atoms: _10  and  _11
REMARK    7  A    between atoms: _11  and  _12
REMARK    8  A    between atoms: _12  and  _13
REMARK    9  A    between atoms: _14  and  _34
REMARK   10  A    between atoms: _16  and  _22
REMARK   11  A    between atoms: _17  and  _21
REMARK   12  A    between atoms: _21  and  _22
REMARK   13  A    between atoms: _24  and  _25
REMARK   14  A    between atoms: _26  and  _27
REMARK   15  A    between atoms: _28  and  _30
REMARK   16  A    between atoms: _30  and  _31
REMARK   17  A    between atoms: _30  and  _32
REMARK   18  A    between atoms: _32  and  _33
REMARK   19  A    between atoms: _32  and  _34
REMARK   20  A    between atoms: _35  and  _37
REMARK                            x       y       z     vdW  Elec       q    Type
REMARK                         _______ _______ _______ _____ _____    ______ ____
ROOT
ATOM      1  C   UNL     1      -3.233  10.448  31.377  0.00  0.00    +0.163 C 
ENDROOT
BRANCH   1   2
ATOM      2  O   UNL     1      -2.123  11.307  31.687  0.00  0.00    -0.388 OA
ATOM      3  H   UNL     1      -2.400  11.972  32.322  0.00  0.00    +0.210 HD
ENDBRANCH   1   2
BRANCH   1   4
ATOM      4  C   UNL     1      -4.149  11.091  30.322  0.00  0.00    +0.175 C 
BRANCH   4   5
ATOM      5  C   UNL     1      -4.290  12.607  30.526  0.00  0.00    +0.176 C 
ATOM      6  O   UNL     1      -4.595  12.843  31.928  0.00  0.00    -0.332 OA
ATOM      7  C   UNL     1      -4.661  14.250  32.334  0.00  0.00    +0.277 C 
ATOM      8  C   UNL     1      -5.664  15.024  31.443  0.00  0.00    +0.110 C 
ATOM      9  C   UNL     1      -5.399  14.778  29.943  0.00  0.00    +0.143 C 
ATOM     10  C   UNL     1      -5.347  13.282  29.632  0.00  0.00    +0.133 C 
BRANCH  10  11
ATOM     11  N   UNL     1      -5.008  13.061  28.218  0.00  0.00    -0.308 N 
ATOM     12  H   UNL     1      -4.091  13.343  27.903  0.00  0.00    +0.149 HD
ATOM     13  C   UNL     1      -5.834  12.512  27.323  0.00  0.00    +0.210 C 
ATOM     14  C   UNL     1      -7.235  12.117  27.828  0.00  0.00    +0.109 C 
ATOM     15  O   UNL     1      -5.518  12.325  26.147  0.00  0.00    -0.276 OA
ENDBRANCH  10  11
BRANCH   7  16
ATOM     16  C   UNL     1      -3.271  14.913  32.241  0.00  0.00    +0.414 C 
ATOM     17  O   UNL     1      -2.252  14.224  32.271  0.00  0.00    -0.240 OA
ATOM     18  O   UNL     1      -3.168  16.136  32.135  0.00  0.00    -0.240 OA
ENDBRANCH   7  16
BRANCH   9  19
ATOM     19  O   UNL     1      -6.433  15.384  29.166  0.00  0.00    -0.390 OA
ATOM     20  H   UNL     1      -7.205  15.530  29.718  0.00  0.00    +0.210 HD
ENDBRANCH   9  19
BRANCH   7  21
ATOM     21  O   UNL     1      -5.135  14.300  33.705  0.00  0.00    -0.343 OA
ATOM     22  C   UNL     1      -6.335  13.529  33.966  0.00  0.00    +0.198 C 
ENDBRANCH   7  21
ENDBRANCH   4   5
BRANCH   4  23
ATOM     23  O   UNL     1      -5.447  10.465  30.342  0.00  0.00    -0.387 OA
ATOM     24  H   UNL     1      -5.435   9.722  30.951  0.00  0.00    +0.210 HD
ENDBRANCH   4  23
ENDBRANCH   1   4
BRANCH   1  25
ATOM     25  C   UNL     1      -2.726   9.105  30.861  0.00  0.00    +0.141 C 
BRANCH  25  28
ATOM     26  C   UNL     1      -2.023   8.134  28.701  0.00  0.00    +0.401 C 
ATOM     27  O   UNL     1      -1.380   7.216  29.216  0.00  0.00    -0.226 OA
ATOM     28  N   UNL     1      -2.678   9.065  29.395  0.00  0.00    -0.279 N 
ATOM     29  H   UNL     1      -3.169   9.784  28.882  0.00  0.00    +0.152 HD
BRANCH  26  30
ATOM     30  O   UNL     1      -2.080   8.227  27.275  0.00  0.00    -0.444 OA
BRANCH  30  31
ATOM     31  C   UNL     1      -3.397   8.613  26.874  0.00  0.00    +0.292 C 
BRANCH  31  33
ATOM     32  N   UNL     1      -2.328  10.327  25.443  0.00  0.00    -0.131 NA
ATOM     33  C   UNL     1      -3.342   9.427  25.647  0.00  0.00    +0.120 A 
ATOM     34  C   UNL     1      -4.197   9.462  24.568  0.00  0.00    +0.137 A 
ATOM     35  N   UNL     1      -3.652  10.405  23.750  0.00  0.00    -0.251 N 
ATOM     36  N   UNL     1      -2.530  10.922  24.275  0.00  0.00    -0.065 NA
BRANCH  35  37
ATOM     37  C   UNL     1      -4.156  10.884  22.480  0.00  0.00    +0.145 C 
BRANCH  37  38
ATOM     38  C   UNL     1      -3.054  11.535  21.650  0.00  0.00    +0.024 C 
BRANCH  38  39
ATOM     39  C   UNL     1      -3.428  12.951  21.207  0.00  0.00    +0.006 C 
BRANCH  39  40
ATOM     40  C   UNL     1      -3.557  13.877  22.418  0.00  0.00    +0.026 C 
BRANCH  40  41
ATOM     41  C   UNL     1      -3.358  15.317  22.049  0.00  0.00    -0.034 C 
ATOM     42  C   UNL     1      -4.330  16.238  22.088  0.00  0.00    +0.004 C 
ENDBRANCH  40  41
ENDBRANCH  39  40
ENDBRANCH  38  39
ENDBRANCH  37  38
ENDBRANCH  35  37
ENDBRANCH  31  33
ENDBRANCH  30  31
ENDBRANCH  26  30
ENDBRANCH  25  28
ENDBRANCH   1  25
TORSDOF 18
