REMARK VINA RESULT:    -4.189      3.092      4.777
REMARK INTER + INTRA:         -11.164
REMARK INTER:                  -8.535
REMARK INTRA:                  -2.629
REMARK UNBOUND:                -3.914
REMARK  Name = lig_assembled_20.pdb
REMARK  16 active torsions:
REMARK  status: ('A' for Active; 'I' for Inactive)
REMARK    1  A    between atoms: _2  and  _11
REMARK    2  A    between atoms: _6  and  _21
REMARK    3  A    between atoms: _8  and  _9
REMARK    4  A    between atoms: _8  and  _21
REMARK    5  A    between atoms: _17  and  _37
REMARK    6  A    between atoms: _19  and  _25
REMARK    7  A    between atoms: _20  and  _24
REMARK    8  A    between atoms: _24  and  _25
REMARK    9  A    between atoms: _27  and  _28
REMARK   10  A    between atoms: _29  and  _30
REMARK   11  A    between atoms: _31  and  _33
REMARK   12  A    between atoms: _33  and  _34
REMARK   13  A    between atoms: _33  and  _35
REMARK   14  A    between atoms: _35  and  _36
REMARK   15  A    between atoms: _35  and  _37
REMARK   16  A    between atoms: _38  and  _40
REMARK                            x       y       z     vdW  Elec       q    Type
REMARK                         _______ _______ _______ _____ _____    ______ ____
ROOT
ATOM      1  C   UNL     1      -3.948  13.447  22.693  0.00  0.00    +0.163 C 
ENDROOT
BRANCH   1   2
ATOM      2  O   UNL     1      -2.844  14.331  22.438  0.00  0.00    -0.388 OA
ATOM      3  H   UNL     1      -2.233  14.303  23.179  0.00  0.00    +0.210 HD
ENDBRANCH   1   2
BRANCH   1   4
ATOM      4  C   UNL     1      -3.547  12.009  22.379  0.00  0.00    +0.141 C 
BRANCH   4   7
ATOM      5  C   UNL     1      -4.091   9.725  23.149  0.00  0.00    +0.401 C 
ATOM      6  O   UNL     1      -3.275   9.178  22.404  0.00  0.00    -0.226 OA
ATOM      7  N   UNL     1      -4.289  11.043  23.199  0.00  0.00    -0.279 N 
ATOM      8  H   UNL     1      -4.988  11.397  23.836  0.00  0.00    +0.152 HD
BRANCH   5   9
ATOM      9  O   UNL     1      -4.888   8.917  24.019  0.00  0.00    -0.444 OA
BRANCH   9  10
ATOM     10  C   UNL     1      -4.057   7.955  24.673  0.00  0.00    +0.292 C 
BRANCH  10  12
ATOM     11  N   UNL     1      -2.241   8.216  26.341  0.00  0.00    -0.131 NA
ATOM     12  C   UNL     1      -3.506   8.511  25.923  0.00  0.00    +0.121 A 
ATOM     13  C   UNL     1      -4.093   9.357  26.833  0.00  0.00    +0.143 A 
ATOM     14  N   UNL     1      -3.141   9.557  27.805  0.00  0.00    -0.220 N 
ATOM     15  N   UNL     1      -2.025   8.854  27.486  0.00  0.00    -0.060 NA
BRANCH  14  16
ATOM     16  C   UNL     1      -3.230  10.351  28.977  0.00  0.00    +0.068 A 
ATOM     17  C   UNL     1      -2.815   9.824  30.212  0.00  0.00    +0.030 A 
ATOM     18  C   UNL     1      -2.885  10.584  31.388  0.00  0.00    +0.030 A 
ATOM     19  C   UNL     1      -3.384  11.885  31.279  0.00  0.00    +0.066 A 
ATOM     20  C   UNL     1      -3.803  12.435  30.074  0.00  0.00    +0.021 A 
ATOM     21  C   UNL     1      -4.226  13.740  30.405  0.00  0.00    +0.142 A 
ATOM     22  N   UNL     1      -4.091  14.011  31.705  0.00  0.00    -0.181 NA
ATOM     23  N   UNL     1      -3.578  12.875  32.209  0.00  0.00    -0.277 N 
ATOM     24  H   UNL     1      -3.384  12.833  33.202  0.00  0.00    +0.189 HD
ATOM     25  C   UNL     1      -3.730  11.665  28.900  0.00  0.00    +0.039 A 
ENDBRANCH  14  16
ENDBRANCH  10  12
ENDBRANCH   9  10
ENDBRANCH   5   9
ENDBRANCH   4   7
ENDBRANCH   1   4
BRANCH   1  26
ATOM     26  C   UNL     1      -5.171  13.835  21.845  0.00  0.00    +0.175 C 
BRANCH  26  27
ATOM     27  C   UNL     1      -5.867  15.096  22.379  0.00  0.00    +0.176 C 
ATOM     28  O   UNL     1      -5.013  16.236  22.087  0.00  0.00    -0.332 OA
ATOM     29  C   UNL     1      -5.567  17.548  22.433  0.00  0.00    +0.277 C 
ATOM     30  C   UNL     1      -5.993  17.581  23.921  0.00  0.00    +0.110 C 
ATOM     31  C   UNL     1      -6.878  16.370  24.287  0.00  0.00    +0.143 C 
ATOM     32  C   UNL     1      -6.206  15.057  23.880  0.00  0.00    +0.133 C 
BRANCH  32  33
ATOM     33  N   UNL     1      -7.096  13.918  24.154  0.00  0.00    -0.308 N 
ATOM     34  H   UNL     1      -7.929  13.824  23.591  0.00  0.00    +0.149 HD
ATOM     35  C   UNL     1      -6.874  12.999  25.099  0.00  0.00    +0.210 C 
ATOM     36  C   UNL     1      -5.609  13.186  25.958  0.00  0.00    +0.109 C 
ATOM     37  O   UNL     1      -7.629  12.047  25.296  0.00  0.00    -0.276 OA
ENDBRANCH  32  33
BRANCH  29  38
ATOM     38  C   UNL     1      -6.781  17.881  21.542  0.00  0.00    +0.414 C 
ATOM     39  O   UNL     1      -6.803  17.525  20.364  0.00  0.00    -0.240 OA
ATOM     40  O   UNL     1      -7.739  18.506  22.000  0.00  0.00    -0.240 OA
ENDBRANCH  29  38
BRANCH  31  41
ATOM     41  O   UNL     1      -7.120  16.358  25.694  0.00  0.00    -0.390 OA
ATOM     42  H   UNL     1      -6.459  15.815  26.129  0.00  0.00    +0.210 HD
ENDBRANCH  31  41
BRANCH  29  43
ATOM     43  O   UNL     1      -4.528  18.541  22.234  0.00  0.00    -0.343 OA
ATOM     44  C   UNL     1      -3.336  18.055  21.566  0.00  0.00    +0.198 C 
ENDBRANCH  29  43
ENDBRANCH  26  27
BRANCH  26  45
ATOM     45  O   UNL     1      -6.105  12.739  21.788  0.00  0.00    -0.387 OA
ATOM     46  H   UNL     1      -6.583  12.768  20.956  0.00  0.00    +0.210 HD
ENDBRANCH  26  45
ENDBRANCH   1  26
TORSDOF 14
