REMARK VINA RESULT:    -4.861      2.133      3.715
REMARK INTER + INTRA:         -12.867
REMARK INTER:                  -9.200
REMARK INTRA:                  -3.666
REMARK UNBOUND:                -3.885
REMARK  Name = lig_assembled_79.pdb
REMARK  20 active torsions:
REMARK  status: ('A' for Active; 'I' for Inactive)
REMARK    1  A    between atoms: _2  and  _10
REMARK    2  A    between atoms: _5  and  _26
REMARK    3  A    between atoms: _7  and  _8
REMARK    4  A    between atoms: _7  and  _26
REMARK    5  A    between atoms: _10  and  _11
REMARK    6  A    between atoms: _10  and  _12
REMARK    7  A    between atoms: _10  and  _13
REMARK    8  A    between atoms: _13  and  _14
REMARK    9  A    between atoms: _22  and  _42
REMARK   10  A    between atoms: _24  and  _30
REMARK   11  A    between atoms: _25  and  _29
REMARK   12  A    between atoms: _29  and  _30
REMARK   13  A    between atoms: _32  and  _33
REMARK   14  A    between atoms: _34  and  _35
REMARK   15  A    between atoms: _36  and  _38
REMARK   16  A    between atoms: _38  and  _39
REMARK   17  A    between atoms: _38  and  _40
REMARK   18  A    between atoms: _40  and  _41
REMARK   19  A    between atoms: _40  and  _42
REMARK   20  A    between atoms: _43  and  _45
REMARK                            x       y       z     vdW  Elec       q    Type
REMARK                         _______ _______ _______ _____ _____    ______ ____
ROOT
ATOM      1  C   UNL     1      -2.305  10.271  26.261  0.00  0.00    +0.401 C 
ATOM      2  O   UNL     1      -1.996  10.990  25.308  0.00  0.00    -0.226 OA
ATOM      3  N   UNL     1      -2.999  10.693  27.319  0.00  0.00    -0.279 N 
ATOM      4  H   UNL     1      -3.212  10.026  28.047  0.00  0.00    +0.152 HD
ENDROOT
BRANCH   3   5
ATOM      5  C   UNL     1      -3.470  12.074  27.486  0.00  0.00    +0.141 C 
BRANCH   5   6
ATOM      6  C   UNL     1      -4.990  12.149  27.578  0.00  0.00    +0.163 C 
BRANCH   6   7
ATOM      7  O   UNL     1      -5.537  10.832  27.756  0.00  0.00    -0.388 OA
ATOM      8  H   UNL     1      -4.831  10.218  27.971  0.00  0.00    +0.210 HD
ENDBRANCH   6   7
BRANCH   6   9
ATOM      9  C   UNL     1      -5.389  13.072  28.742  0.00  0.00    +0.175 C 
BRANCH   9  10
ATOM     10  C   UNL     1      -4.616  12.748  30.029  0.00  0.00    +0.176 C 
ATOM     11  O   UNL     1      -5.061  11.448  30.503  0.00  0.00    -0.332 OA
ATOM     12  C   UNL     1      -4.351  10.923  31.673  0.00  0.00    +0.277 C 
ATOM     13  C   UNL     1      -4.392  11.946  32.835  0.00  0.00    +0.110 C 
ATOM     14  C   UNL     1      -3.956  13.352  32.371  0.00  0.00    +0.143 C 
ATOM     15  C   UNL     1      -4.756  13.798  31.147  0.00  0.00    +0.133 C 
BRANCH  15  16
ATOM     16  N   UNL     1      -4.273  15.100  30.662  0.00  0.00    -0.308 N 
ATOM     17  H   UNL     1      -3.309  15.166  30.368  0.00  0.00    +0.149 HD
ATOM     18  C   UNL     1      -5.026  16.201  30.585  0.00  0.00    +0.210 C 
ATOM     19  C   UNL     1      -6.484  16.075  31.065  0.00  0.00    +0.109 C 
ATOM     20  O   UNL     1      -4.598  17.275  30.161  0.00  0.00    -0.276 OA
ENDBRANCH  15  16
BRANCH  12  21
ATOM     21  C   UNL     1      -2.884  10.598  31.323  0.00  0.00    +0.414 C 
ATOM     22  O   UNL     1      -1.973  10.979  32.056  0.00  0.00    -0.240 OA
ATOM     23  O   UNL     1      -2.612   9.956  30.308  0.00  0.00    -0.240 OA
ENDBRANCH  12  21
BRANCH  14  24
ATOM     24  O   UNL     1      -4.152  14.290  33.429  0.00  0.00    -0.390 OA
ATOM     25  H   UNL     1      -3.472  14.966  33.388  0.00  0.00    +0.210 HD
ENDBRANCH  14  24
BRANCH  12  26
ATOM     26  O   UNL     1      -5.029   9.714  32.104  0.00  0.00    -0.343 OA
ATOM     27  C   UNL     1      -4.553   9.158  33.356  0.00  0.00    +0.198 C 
ENDBRANCH  12  26
ENDBRANCH   9  10
BRANCH   9  28
ATOM     28  O   UNL     1      -6.808  12.985  28.981  0.00  0.00    -0.387 OA
ATOM     29  H   UNL     1      -7.282  13.385  28.248  0.00  0.00    +0.210 HD
ENDBRANCH   9  28
ENDBRANCH   6   9
ENDBRANCH   5   6
ENDBRANCH   3   5
BRANCH   1  30
ATOM     30  O   UNL     1      -1.910   8.897  26.252  0.00  0.00    -0.444 OA
BRANCH  30  31
ATOM     31  C   UNL     1      -3.051   8.070  26.497  0.00  0.00    +0.292 C 
BRANCH  31  33
ATOM     32  N   UNL     1      -5.297   8.802  25.786  0.00  0.00    -0.131 NA
ATOM     33  C   UNL     1      -4.073   8.295  25.459  0.00  0.00    +0.120 A 
ATOM     34  C   UNL     1      -4.028   8.065  24.102  0.00  0.00    +0.138 A 
ATOM     35  N   UNL     1      -5.224   8.536  23.634  0.00  0.00    -0.238 N 
ATOM     36  N   UNL     1      -6.009   8.903  24.676  0.00  0.00    -0.064 NA
BRANCH  35  37
ATOM     37  C   UNL     1      -5.815   8.509  22.264  0.00  0.00    +0.122 C 
ATOM     38  C   UNL     1      -7.286   8.962  22.412  0.00  0.00    +0.044 C 
ATOM     39  C   UNL     1      -5.632   7.056  21.781  0.00  0.00    +0.044 C 
BRANCH  37  40
ATOM     40  C   UNL     1      -5.131   9.480  21.280  0.00  0.00    +0.192 C 
ATOM     41  O   UNL     1      -5.117   9.233  20.069  0.00  0.00    -0.289 OA
BRANCH  40  42
ATOM     42  C   UNL     1      -4.446  10.728  21.726  0.00  0.00    +0.045 A 
ATOM     43  C   UNL     1      -3.058  10.800  21.705  0.00  0.00    +0.095 A 
ATOM     44  N   UNL     1      -2.653  12.012  22.178  0.00  0.00    -0.360 N 
ATOM     45  H   UNL     1      -1.693  12.311  22.275  0.00  0.00    +0.165 HD
ATOM     46  C   UNL     1      -3.744  12.769  22.518  0.00  0.00    +0.047 A 
ATOM     47  C   UNL     1      -3.781  14.066  23.051  0.00  0.00    +0.026 A 
ATOM     48  C   UNL     1      -5.026  14.632  23.324  0.00  0.00    +0.002 A 
ATOM     49  C   UNL     1      -6.190  13.925  23.068  0.00  0.00    +0.001 A 
ATOM     50  C   UNL     1      -6.132  12.631  22.535  0.00  0.00    +0.011 A 
ATOM     51  C   UNL     1      -4.890  12.010  22.245  0.00  0.00    +0.010 A 
ENDBRANCH  40  42
ENDBRANCH  37  40
ENDBRANCH  35  37
ENDBRANCH  31  33
ENDBRANCH  30  31
ENDBRANCH   1  30
TORSDOF 16
