REMARK VINA RESULT:    -3.869      2.040      7.831
REMARK INTER + INTRA:         -10.756
REMARK INTER:                  -8.070
REMARK INTRA:                  -2.686
REMARK UNBOUND:                -3.721
REMARK  Name = lig_assembled_35.pdb
REMARK  19 active torsions:
REMARK  status: ('A' for Active; 'I' for Inactive)
REMARK    1  A    between atoms: _2  and  _9
REMARK    2  A    between atoms: _4  and  _17
REMARK    3  A    between atoms: _5  and  _9
REMARK    4  A    between atoms: _5  and  _11
REMARK    5  A    between atoms: _6  and  _7
REMARK    6  A    between atoms: _6  and  _17
REMARK    7  A    between atoms: _9  and  _10
REMARK    8  A    between atoms: _13  and  _33
REMARK    9  A    between atoms: _15  and  _21
REMARK   10  A    between atoms: _16  and  _20
REMARK   11  A    between atoms: _20  and  _21
REMARK   12  A    between atoms: _23  and  _24
REMARK   13  A    between atoms: _25  and  _26
REMARK   14  A    between atoms: _27  and  _29
REMARK   15  A    between atoms: _29  and  _30
REMARK   16  A    between atoms: _29  and  _31
REMARK   17  A    between atoms: _31  and  _32
REMARK   18  A    between atoms: _31  and  _33
REMARK   19  A    between atoms: _34  and  _36
REMARK                            x       y       z     vdW  Elec       q    Type
REMARK                         _______ _______ _______ _____ _____    ______ ____
ROOT
ATOM      1  C   UNL     1      -3.000  12.276  25.545  0.00  0.00    +0.163 C 
ENDROOT
BRANCH   1   2
ATOM      2  O   UNL     1      -2.702  13.035  24.363  0.00  0.00    -0.388 OA
ATOM      3  H   UNL     1      -1.829  13.428  24.446  0.00  0.00    +0.210 HD
ENDBRANCH   1   2
BRANCH   1   4
ATOM      4  C   UNL     1      -4.411  11.667  25.467  0.00  0.00    +0.175 C 
BRANCH   4   5
ATOM      5  C   UNL     1      -4.669  10.979  24.118  0.00  0.00    +0.176 C 
ATOM      6  O   UNL     1      -5.225  11.969  23.210  0.00  0.00    -0.332 OA
ATOM      7  C   UNL     1      -5.440  11.516  21.832  0.00  0.00    +0.277 C 
ATOM      8  C   UNL     1      -6.314  10.239  21.813  0.00  0.00    +0.110 C 
ATOM      9  C   UNL     1      -5.780   9.168  22.787  0.00  0.00    +0.143 C 
ATOM     10  C   UNL     1      -5.591   9.748  24.189  0.00  0.00    +0.133 C 
BRANCH  10  11
ATOM     11  N   UNL     1      -5.000   8.743  25.087  0.00  0.00    -0.308 N 
ATOM     12  H   UNL     1      -4.060   8.430  24.891  0.00  0.00    +0.149 HD
ATOM     13  C   UNL     1      -5.626   8.217  26.144  0.00  0.00    +0.210 C 
ATOM     14  C   UNL     1      -7.068   8.694  26.400  0.00  0.00    +0.109 C 
ATOM     15  O   UNL     1      -5.101   7.387  26.887  0.00  0.00    -0.276 OA
ENDBRANCH  10  11
BRANCH   7  16
ATOM     16  C   UNL     1      -4.093  11.231  21.135  0.00  0.00    +0.414 C 
ATOM     17  O   UNL     1      -4.018  10.367  20.262  0.00  0.00    -0.240 OA
ATOM     18  O   UNL     1      -3.083  11.864  21.445  0.00  0.00    -0.240 OA
ENDBRANCH   7  16
BRANCH   7  19
ATOM     19  O   UNL     1      -6.146  12.565  21.120  0.00  0.00    -0.343 OA
ATOM     20  C   UNL     1      -6.198  13.842  21.805  0.00  0.00    +0.198 C 
ENDBRANCH   7  19
BRANCH   9  21
ATOM     21  O   UNL     1      -6.695   8.074  22.849  0.00  0.00    -0.390 OA
ATOM     22  H   UNL     1      -6.222   7.273  23.088  0.00  0.00    +0.210 HD
ENDBRANCH   9  21
ENDBRANCH   4   5
BRANCH   4  23
ATOM     23  O   UNL     1      -5.404  12.685  25.703  0.00  0.00    -0.387 OA
ATOM     24  H   UNL     1      -5.350  13.352  25.015  0.00  0.00    +0.210 HD
ENDBRANCH   4  23
ENDBRANCH   1   4
BRANCH   1  25
ATOM     25  C   UNL     1      -1.974  11.161  25.723  0.00  0.00    +0.141 C 
BRANCH  25  28
ATOM     26  C   UNL     1      -2.032   9.271  27.313  0.00  0.00    +0.401 C 
ATOM     27  O   UNL     1      -2.014   8.407  26.432  0.00  0.00    -0.226 OA
ATOM     28  N   UNL     1      -2.022  10.582  27.071  0.00  0.00    -0.279 N 
ATOM     29  H   UNL     1      -2.049  11.213  27.860  0.00  0.00    +0.152 HD
BRANCH  26  30
ATOM     30  O   UNL     1      -2.071   8.865  28.683  0.00  0.00    -0.444 OA
BRANCH  30  31
ATOM     31  C   UNL     1      -3.381   9.091  29.211  0.00  0.00    +0.292 C 
BRANCH  31  33
ATOM     32  N   UNL     1      -2.612  10.074  31.348  0.00  0.00    -0.131 NA
ATOM     33  C   UNL     1      -3.351  10.185  30.202  0.00  0.00    +0.120 A 
ATOM     34  C   UNL     1      -3.988  11.406  30.193  0.00  0.00    +0.138 A 
ATOM     35  N   UNL     1      -3.582  11.997  31.354  0.00  0.00    -0.238 N 
ATOM     36  N   UNL     1      -2.773  11.184  32.054  0.00  0.00    -0.065 NA
BRANCH  35  37
ATOM     37  C   UNL     1      -3.923  13.297  31.900  0.00  0.00    +0.214 C 
ATOM     38  C   UNL     1      -4.474  13.167  33.317  0.00  0.00    +0.045 C 
BRANCH  37  39
ATOM     39  C   UNL     1      -2.750  14.253  31.829  0.00  0.00    +0.329 C 
ATOM     40  O   UNL     1      -2.843  15.470  31.926  0.00  0.00    -0.249 OA
BRANCH  39  41
ATOM     41  O   UNL     1      -1.552  13.655  31.616  0.00  0.00    -0.479 OA
ATOM     42  H   UNL     1      -0.902  14.176  31.101  0.00  0.00    +0.295 HD
ENDBRANCH  39  41
ENDBRANCH  37  39
ENDBRANCH  35  37
ENDBRANCH  31  33
ENDBRANCH  30  31
ENDBRANCH  26  30
ENDBRANCH  25  28
ENDBRANCH   1  25
TORSDOF 16
