REMARK VINA RESULT:    -4.300      8.161     13.850
REMARK INTER + INTRA:          -9.950
REMARK INTER:                  -7.450
REMARK INTRA:                  -2.500
REMARK UNBOUND:                -2.508
REMARK  Name = lig_assembled_48.pdb
REMARK  16 active torsions:
REMARK  status: ('A' for Active; 'I' for Inactive)
REMARK    1  A    between atoms: _2  and  _9
REMARK    2  A    between atoms: _4  and  _18
REMARK    3  A    between atoms: _6  and  _7
REMARK    4  A    between atoms: _6  and  _18
REMARK    5  A    between atoms: _14  and  _34
REMARK    6  A    between atoms: _16  and  _22
REMARK    7  A    between atoms: _17  and  _21
REMARK    8  A    between atoms: _21  and  _22
REMARK    9  A    between atoms: _24  and  _25
REMARK   10  A    between atoms: _26  and  _27
REMARK   11  A    between atoms: _28  and  _30
REMARK   12  A    between atoms: _30  and  _31
REMARK   13  A    between atoms: _30  and  _32
REMARK   14  A    between atoms: _32  and  _33
REMARK   15  A    between atoms: _32  and  _34
REMARK   16  A    between atoms: _35  and  _37
REMARK                            x       y       z     vdW  Elec       q    Type
REMARK                         _______ _______ _______ _____ _____    ______ ____
ROOT
ATOM      1  C   UNL     1      -7.628  11.035  15.209  0.00  0.00    +0.163 C 
ENDROOT
BRANCH   1   2
ATOM      2  O   UNL     1      -7.065  12.349  15.061  0.00  0.00    -0.388 OA
ATOM      3  H   UNL     1      -7.474  12.791  14.313  0.00  0.00    +0.210 HD
ENDBRANCH   1   2
BRANCH   1   4
ATOM      4  C   UNL     1      -7.974  10.778  16.671  0.00  0.00    +0.141 C 
BRANCH   4   7
ATOM      5  C   UNL     1      -5.890  10.925  17.991  0.00  0.00    +0.401 C 
ATOM      6  O   UNL     1      -5.849  12.157  17.964  0.00  0.00    -0.226 OA
ATOM      7  N   UNL     1      -6.844  10.198  17.407  0.00  0.00    -0.279 N 
ATOM      8  H   UNL     1      -6.786   9.192  17.476  0.00  0.00    +0.152 HD
BRANCH   5   9
ATOM      9  O   UNL     1      -4.860  10.210  18.679  0.00  0.00    -0.444 OA
BRANCH   9  10
ATOM     10  C   UNL     1      -5.347   9.779  19.953  0.00  0.00    +0.292 C 
BRANCH  10  12
ATOM     11  N   UNL     1      -3.370  10.377  21.310  0.00  0.00    -0.131 NA
ATOM     12  C   UNL     1      -4.696  10.548  21.030  0.00  0.00    +0.120 A 
ATOM     13  C   UNL     1      -5.214  11.509  21.870  0.00  0.00    +0.137 A 
ATOM     14  N   UNL     1      -4.135  11.955  22.573  0.00  0.00    -0.248 N 
ATOM     15  N   UNL     1      -3.043  11.215  22.282  0.00  0.00    -0.065 NA
BRANCH  14  16
ATOM     16  C   UNL     1      -3.995  13.081  23.489  0.00  0.00    +0.109 C 
ATOM     17  C   UNL     1      -5.220  13.195  24.417  0.00  0.00    +0.027 C 
ATOM     18  C   UNL     1      -5.235  12.082  25.462  0.00  0.00    +0.002 C 
ATOM     19  C   UNL     1      -3.981  12.132  26.326  0.00  0.00    +0.000 C 
ATOM     20  C   UNL     1      -2.699  12.103  25.499  0.00  0.00    +0.002 C 
ATOM     21  C   UNL     1      -2.707  13.102  24.335  0.00  0.00    +0.027 C 
ENDBRANCH  14  16
ENDBRANCH  10  12
ENDBRANCH   9  10
ENDBRANCH   5   9
ENDBRANCH   4   7
ENDBRANCH   1   4
BRANCH   1  22
ATOM     22  C   UNL     1      -6.647   9.958  14.715  0.00  0.00    +0.175 C 
BRANCH  22  23
ATOM     23  C   UNL     1      -5.315  10.561  14.246  0.00  0.00    +0.176 C 
ATOM     24  O   UNL     1      -5.511  11.090  12.905  0.00  0.00    -0.332 OA
ATOM     25  C   UNL     1      -4.366  11.803  12.332  0.00  0.00    +0.277 C 
ATOM     26  C   UNL     1      -3.102  10.910  12.361  0.00  0.00    +0.110 C 
ATOM     27  C   UNL     1      -2.869  10.298  13.759  0.00  0.00    +0.143 C 
ATOM     28  C   UNL     1      -4.125   9.583  14.261  0.00  0.00    +0.133 C 
BRANCH  28  29
ATOM     29  N   UNL     1      -3.919   9.080  15.628  0.00  0.00    -0.308 N 
ATOM     30  H   UNL     1      -3.711   9.754  16.352  0.00  0.00    +0.149 HD
ATOM     31  C   UNL     1      -3.990   7.793  15.975  0.00  0.00    +0.210 C 
ATOM     32  C   UNL     1      -4.284   6.789  14.844  0.00  0.00    +0.109 C 
ATOM     33  O   UNL     1      -3.828   7.402  17.132  0.00  0.00    -0.276 OA
ENDBRANCH  28  29
BRANCH  25  34
ATOM     34  C   UNL     1      -4.092  13.110  13.105  0.00  0.00    +0.414 C 
ATOM     35  O   UNL     1      -2.937  13.489  13.293  0.00  0.00    -0.240 OA
ATOM     36  O   UNL     1      -5.026  13.785  13.540  0.00  0.00    -0.240 OA
ENDBRANCH  25  34
BRANCH  27  37
ATOM     37  O   UNL     1      -1.788   9.367  13.704  0.00  0.00    -0.390 OA
ATOM     38  H   UNL     1      -2.129   8.474  13.796  0.00  0.00    +0.210 HD
ENDBRANCH  27  37
BRANCH  25  39
ATOM     39  O   UNL     1      -4.676  12.110  10.948  0.00  0.00    -0.343 OA
ATOM     40  C   UNL     1      -5.487  11.119  10.268  0.00  0.00    +0.198 C 
ENDBRANCH  25  39
ENDBRANCH  22  23
BRANCH  22  41
ATOM     41  O   UNL     1      -7.247   9.190  13.653  0.00  0.00    -0.387 OA
ATOM     42  H   UNL     1      -7.476   8.316  13.979  0.00  0.00    +0.210 HD
ENDBRANCH  22  41
ENDBRANCH   1  22
TORSDOF 14
