REMARK VINA RESULT:    -4.612      5.660      9.014
REMARK INTER + INTRA:         -11.155
REMARK INTER:                  -8.601
REMARK INTRA:                  -2.554
REMARK UNBOUND:                -2.903
REMARK  Name = lig_assembled_69.pdb
REMARK  18 active torsions:
REMARK  status: ('A' for Active; 'I' for Inactive)
REMARK    1  A    between atoms: _2  and  _9
REMARK    2  A    between atoms: _4  and  _21
REMARK    3  A    between atoms: _6  and  _7
REMARK    4  A    between atoms: _6  and  _21
REMARK    5  A    between atoms: _11  and  _16
REMARK    6  A    between atoms: _14  and  _15
REMARK    7  A    between atoms: _17  and  _37
REMARK    8  A    between atoms: _19  and  _25
REMARK    9  A    between atoms: _20  and  _24
REMARK   10  A    between atoms: _24  and  _25
REMARK   11  A    between atoms: _27  and  _28
REMARK   12  A    between atoms: _29  and  _30
REMARK   13  A    between atoms: _31  and  _33
REMARK   14  A    between atoms: _33  and  _34
REMARK   15  A    between atoms: _33  and  _35
REMARK   16  A    between atoms: _35  and  _36
REMARK   17  A    between atoms: _35  and  _37
REMARK   18  A    between atoms: _38  and  _40
REMARK                            x       y       z     vdW  Elec       q    Type
REMARK                         _______ _______ _______ _____ _____    ______ ____
ROOT
ATOM      1  C   UNL     1      -6.457   9.439  23.226  0.00  0.00    +0.163 C 
ENDROOT
BRANCH   1   2
ATOM      2  O   UNL     1      -7.203   9.419  24.455  0.00  0.00    -0.388 OA
ATOM      3  H   UNL     1      -7.999   8.896  24.338  0.00  0.00    +0.210 HD
ENDBRANCH   1   2
BRANCH   1   4
ATOM      4  C   UNL     1      -5.146   8.646  23.366  0.00  0.00    +0.175 C 
BRANCH   4   5
ATOM      5  C   UNL     1      -4.061   9.448  24.098  0.00  0.00    +0.176 C 
ATOM      6  O   UNL     1      -4.396   9.466  25.513  0.00  0.00    -0.332 OA
ATOM      7  C   UNL     1      -3.409  10.103  26.390  0.00  0.00    +0.277 C 
ATOM      8  C   UNL     1      -3.103  11.541  25.906  0.00  0.00    +0.110 C 
ATOM      9  C   UNL     1      -2.771  11.576  24.399  0.00  0.00    +0.143 C 
ATOM     10  C   UNL     1      -3.862  10.885  23.581  0.00  0.00    +0.133 C 
BRANCH  10  11
ATOM     11  N   UNL     1      -3.493  10.848  22.157  0.00  0.00    -0.308 N 
ATOM     12  H   UNL     1      -2.738  10.236  21.881  0.00  0.00    +0.149 HD
ATOM     13  C   UNL     1      -4.091  11.571  21.206  0.00  0.00    +0.210 C 
ATOM     14  C   UNL     1      -5.220  12.513  21.663  0.00  0.00    +0.109 C 
ATOM     15  O   UNL     1      -3.770  11.509  20.018  0.00  0.00    -0.276 OA
ENDBRANCH  10  11
BRANCH   7  16
ATOM     16  C   UNL     1      -2.103   9.283  26.429  0.00  0.00    +0.414 C 
ATOM     17  O   UNL     1      -1.014   9.853  26.479  0.00  0.00    -0.240 OA
ATOM     18  O   UNL     1      -2.138   8.052  26.411  0.00  0.00    -0.240 OA
ENDBRANCH   7  16
BRANCH   7  19
ATOM     19  O   UNL     1      -3.977  10.180  27.723  0.00  0.00    -0.343 OA
ATOM     20  C   UNL     1      -3.893  11.485  28.350  0.00  0.00    +0.198 C 
ENDBRANCH   7  19
BRANCH   9  21
ATOM     21  O   UNL     1      -2.645  12.931  23.965  0.00  0.00    -0.390 OA
ATOM     22  H   UNL     1      -1.729  13.113  23.744  0.00  0.00    +0.210 HD
ENDBRANCH   9  21
ENDBRANCH   4   5
BRANCH   4  23
ATOM     23  O   UNL     1      -4.672   8.239  22.067  0.00  0.00    -0.387 OA
ATOM     24  H   UNL     1      -5.386   7.818  21.582  0.00  0.00    +0.210 HD
ENDBRANCH   4  23
ENDBRANCH   1   4
BRANCH   1  25
ATOM     25  C   UNL     1      -7.295   8.845  22.099  0.00  0.00    +0.141 C 
BRANCH  25  28
ATOM     26  C   UNL     1      -6.735   9.497  19.782  0.00  0.00    +0.401 C 
ATOM     27  O   UNL     1      -6.031   8.506  19.573  0.00  0.00    -0.226 OA
ATOM     28  N   UNL     1      -7.359   9.739  20.936  0.00  0.00    -0.279 N 
ATOM     29  H   UNL     1      -7.906  10.584  21.014  0.00  0.00    +0.152 HD
BRANCH  26  30
ATOM     30  O   UNL     1      -6.904  10.461  18.739  0.00  0.00    -0.444 OA
BRANCH  30  31
ATOM     31  C   UNL     1      -6.318   9.967  17.532  0.00  0.00    +0.292 C 
BRANCH  31  33
ATOM     32  N   UNL     1      -6.967  12.198  16.688  0.00  0.00    -0.131 NA
ATOM     33  C   UNL     1      -6.281  11.027  16.508  0.00  0.00    +0.120 A 
ATOM     34  C   UNL     1      -5.636  11.065  15.291  0.00  0.00    +0.137 A 
ATOM     35  N   UNL     1      -5.981  12.279  14.775  0.00  0.00    -0.248 N 
ATOM     36  N   UNL     1      -6.780  12.955  15.618  0.00  0.00    -0.065 NA
BRANCH  35  37
ATOM     37  C   UNL     1      -5.630  12.835  13.469  0.00  0.00    +0.114 C 
ATOM     38  C   UNL     1      -4.152  12.599  13.136  0.00  0.00    +0.062 C 
ATOM     39  C   UNL     1      -3.160  13.621  13.697  0.00  0.00    +0.139 C 
ATOM     40  C   UNL     1      -3.191  14.991  13.081  0.00  0.00    +0.002 C 
ATOM     41  C   UNL     1      -4.184  15.582  12.397  0.00  0.00    +0.002 C 
ATOM     42  C   UNL     1      -5.582  15.082  12.195  0.00  0.00    +0.139 C 
ATOM     43  C   UNL     1      -6.142  14.279  13.363  0.00  0.00    +0.062 C 
BRANCH  39  44
ATOM     44  O   UNL     1      -1.845  13.114  13.437  0.00  0.00    -0.388 OA
ATOM     45  H   UNL     1      -1.924  12.153  13.313  0.00  0.00    +0.210 HD
ENDBRANCH  39  44
BRANCH  42  46
ATOM     46  O   UNL     1      -5.642  14.325  10.997  0.00  0.00    -0.388 OA
ATOM     47  H   UNL     1      -5.904  13.420  11.239  0.00  0.00    +0.210 HD
ENDBRANCH  42  46
ENDBRANCH  35  37
ENDBRANCH  31  33
ENDBRANCH  30  31
ENDBRANCH  26  30
ENDBRANCH  25  28
ENDBRANCH   1  25
TORSDOF 16
