REMARK VINA RESULT:    -5.078      8.158     12.850
REMARK INTER + INTRA:         -11.630
REMARK INTER:                  -8.766
REMARK INTRA:                  -2.864
REMARK UNBOUND:                -2.841
REMARK  Name = lig_assembled_86.pdb
REMARK  17 active torsions:
REMARK  status: ('A' for Active; 'I' for Inactive)
REMARK    1  A    between atoms: _2  and  _10
REMARK    2  A    between atoms: _3  and  _13
REMARK    3  A    between atoms: _5  and  _21
REMARK    4  A    between atoms: _7  and  _8
REMARK    5  A    between atoms: _7  and  _21
REMARK    6  A    between atoms: _17  and  _37
REMARK    7  A    between atoms: _19  and  _25
REMARK    8  A    between atoms: _20  and  _24
REMARK    9  A    between atoms: _24  and  _25
REMARK   10  A    between atoms: _27  and  _28
REMARK   11  A    between atoms: _29  and  _30
REMARK   12  A    between atoms: _31  and  _33
REMARK   13  A    between atoms: _33  and  _34
REMARK   14  A    between atoms: _33  and  _35
REMARK   15  A    between atoms: _35  and  _36
REMARK   16  A    between atoms: _35  and  _37
REMARK   17  A    between atoms: _38  and  _40
REMARK                            x       y       z     vdW  Elec       q    Type
REMARK                         _______ _______ _______ _____ _____    ______ ____
ROOT
ATOM      1  C   UNL     1      -2.326   9.799  26.947  0.00  0.00    +0.163 C 
ENDROOT
BRANCH   1   2
ATOM      2  O   UNL     1      -1.132   9.907  26.154  0.00  0.00    -0.388 OA
ATOM      3  H   UNL     1      -0.377   9.612  26.670  0.00  0.00    +0.210 HD
ENDBRANCH   1   2
BRANCH   1   4
ATOM      4  C   UNL     1      -1.983   9.278  28.338  0.00  0.00    +0.141 C 
BRANCH   4   7
ATOM      5  C   UNL     1      -3.501   9.493  30.276  0.00  0.00    +0.401 C 
ATOM      6  O   UNL     1      -3.796   8.295  30.297  0.00  0.00    -0.226 OA
ATOM      7  N   UNL     1      -2.666  10.039  29.391  0.00  0.00    -0.279 N 
ATOM      8  H   UNL     1      -2.494  11.033  29.449  0.00  0.00    +0.152 HD
BRANCH   5   9
ATOM      9  O   UNL     1      -4.080  10.368  31.247  0.00  0.00    -0.444 OA
BRANCH   9  10
ATOM     10  C   UNL     1      -3.079  10.769  32.186  0.00  0.00    +0.292 C 
BRANCH  10  12
ATOM     11  N   UNL     1      -1.705  12.830  32.301  0.00  0.00    -0.131 NA
ATOM     12  C   UNL     1      -2.934  12.237  32.181  0.00  0.00    +0.120 A 
ATOM     13  C   UNL     1      -3.891  13.216  32.051  0.00  0.00    +0.137 A 
ATOM     14  N   UNL     1      -3.181  14.378  32.064  0.00  0.00    -0.248 N 
ATOM     15  N   UNL     1      -1.870  14.146  32.246  0.00  0.00    -0.065 NA
BRANCH  14  16
ATOM     16  C   UNL     1      -3.696  15.729  31.899  0.00  0.00    +0.112 C 
ATOM     17  C   UNL     1      -4.577  15.858  30.640  0.00  0.00    +0.045 C 
ATOM     18  C   UNL     1      -5.897  16.603  30.858  0.00  0.00    +0.059 C 
ATOM     19  C   UNL     1      -6.921  15.715  31.573  0.00  0.00    +0.020 C 
ATOM     20  C   UNL     1      -6.755  16.053  33.053  0.00  0.00    +0.020 C 
ATOM     21  C   UNL     1      -5.594  17.048  33.091  0.00  0.00    +0.059 C 
ATOM     22  N   UNL     1      -5.771  17.714  31.800  0.00  0.00    -0.299 NA
ATOM     23  C   UNL     1      -4.809  18.748  31.469  0.00  0.00    +0.105 C 
ATOM     24  C   UNL     1      -4.245  16.327  33.215  0.00  0.00    +0.045 C 
ENDBRANCH  14  16
ENDBRANCH  10  12
ENDBRANCH   9  10
ENDBRANCH   5   9
ENDBRANCH   4   7
ENDBRANCH   1   4
BRANCH   1  25
ATOM     25  C   UNL     1      -3.344   8.857  26.282  0.00  0.00    +0.175 C 
BRANCH  25  26
ATOM     26  C   UNL     1      -4.173   9.571  25.204  0.00  0.00    +0.176 C 
ATOM     27  O   UNL     1      -3.302   9.831  24.069  0.00  0.00    -0.332 OA
ATOM     28  C   UNL     1      -3.952  10.418  22.893  0.00  0.00    +0.277 C 
ATOM     29  C   UNL     1      -4.707  11.712  23.281  0.00  0.00    +0.110 C 
ATOM     30  C   UNL     1      -5.623  11.493  24.503  0.00  0.00    +0.143 C 
ATOM     31  C   UNL     1      -4.846  10.877  25.667  0.00  0.00    +0.133 C 
BRANCH  31  32
ATOM     32  N   UNL     1      -5.747  10.592  26.795  0.00  0.00    -0.308 N 
ATOM     33  H   UNL     1      -6.399   9.827  26.696  0.00  0.00    +0.149 HD
ATOM     34  C   UNL     1      -5.759  11.279  27.940  0.00  0.00    +0.210 C 
ATOM     35  C   UNL     1      -4.771  12.455  28.050  0.00  0.00    +0.109 C 
ATOM     36  O   UNL     1      -6.515  11.009  28.874  0.00  0.00    -0.276 OA
ENDBRANCH  31  32
BRANCH  28  37
ATOM     37  C   UNL     1      -4.938   9.416  22.256  0.00  0.00    +0.414 C 
ATOM     38  O   UNL     1      -6.051   9.791  21.888  0.00  0.00    -0.240 OA
ATOM     39  O   UNL     1      -4.622   8.235  22.111  0.00  0.00    -0.240 OA
ENDBRANCH  28  37
BRANCH  30  40
ATOM     40  O   UNL     1      -6.180  12.741  24.918  0.00  0.00    -0.390 OA
ATOM     41  H   UNL     1      -6.992  12.583  25.405  0.00  0.00    +0.210 HD
ENDBRANCH  30  40
BRANCH  28  42
ATOM     42  O   UNL     1      -2.918  10.761  21.934  0.00  0.00    -0.343 OA
ATOM     43  C   UNL     1      -3.143  11.995  21.207  0.00  0.00    +0.198 C 
ENDBRANCH  28  42
ENDBRANCH  25  26
BRANCH  25  44
ATOM     44  O   UNL     1      -4.214   8.283  27.278  0.00  0.00    -0.387 OA
ATOM     45  H   UNL     1      -3.816   7.481  27.626  0.00  0.00    +0.210 HD
ENDBRANCH  25  44
ENDBRANCH   1  25
TORSDOF 14
