REMARK VINA RESULT:    -4.543      2.519      5.335
REMARK INTER + INTRA:         -11.807
REMARK INTER:                  -8.134
REMARK INTRA:                  -3.673
REMARK UNBOUND:                -3.679
REMARK  Name = lig_assembled_0.pdb
REMARK  17 active torsions:
REMARK  status: ('A' for Active; 'I' for Inactive)
REMARK    1  A    between atoms: _2  and  _10
REMARK    2  A    between atoms: _5  and  _21
REMARK    3  A    between atoms: _7  and  _8
REMARK    4  A    between atoms: _7  and  _21
REMARK    5  A    between atoms: _11  and  _12
REMARK    6  A    between atoms: _17  and  _37
REMARK    7  A    between atoms: _19  and  _25
REMARK    8  A    between atoms: _20  and  _24
REMARK    9  A    between atoms: _24  and  _25
REMARK   10  A    between atoms: _27  and  _28
REMARK   11  A    between atoms: _29  and  _30
REMARK   12  A    between atoms: _31  and  _33
REMARK   13  A    between atoms: _33  and  _34
REMARK   14  A    between atoms: _33  and  _35
REMARK   15  A    between atoms: _35  and  _36
REMARK   16  A    between atoms: _35  and  _37
REMARK   17  A    between atoms: _38  and  _40
REMARK                            x       y       z     vdW  Elec       q    Type
REMARK                         _______ _______ _______ _____ _____    ______ ____
ROOT
ATOM      1  C   UNL     1      -2.992  11.772  23.488  0.00  0.00    +0.163 C 
ENDROOT
BRANCH   1   2
ATOM      2  O   UNL     1      -2.308  11.670  24.748  0.00  0.00    -0.388 OA
ATOM      3  H   UNL     1      -1.634  10.988  24.693  0.00  0.00    +0.210 HD
ENDBRANCH   1   2
BRANCH   1   4
ATOM      4  C   UNL     1      -3.883  13.010  23.477  0.00  0.00    +0.141 C 
BRANCH   4   7
ATOM      5  C   UNL     1      -5.809  13.008  25.025  0.00  0.00    +0.401 C 
ATOM      6  O   UNL     1      -6.606  12.592  24.182  0.00  0.00    -0.226 OA
ATOM      7  N   UNL     1      -4.518  13.238  24.781  0.00  0.00    -0.279 N 
ATOM      8  H   UNL     1      -3.945  13.590  25.535  0.00  0.00    +0.152 HD
BRANCH   5   9
ATOM      9  O   UNL     1      -6.275  13.273  26.351  0.00  0.00    -0.444 OA
BRANCH   9  10
ATOM     10  C   UNL     1      -6.440  12.039  27.055  0.00  0.00    +0.292 C 
BRANCH  10  12
ATOM     11  N   UNL     1      -6.378  11.379  29.431  0.00  0.00    -0.131 NA
ATOM     12  C   UNL     1      -5.887  12.147  28.418  0.00  0.00    +0.121 A 
ATOM     13  C   UNL     1      -4.864  12.930  28.901  0.00  0.00    +0.143 A 
ATOM     14  N   UNL     1      -4.824  12.677  30.253  0.00  0.00    -0.219 N 
ATOM     15  N   UNL     1      -5.696  11.667  30.528  0.00  0.00    -0.060 NA
BRANCH  14  16
ATOM     16  C   UNL     1      -3.980  13.199  31.274  0.00  0.00    +0.079 A 
ATOM     17  C   UNL     1      -3.126  12.425  32.085  0.00  0.00    +0.062 A 
ATOM     18  C   UNL     1      -2.374  13.071  33.091  0.00  0.00    +0.015 A 
ATOM     19  C   UNL     1      -2.471  14.446  33.301  0.00  0.00    +0.001 A 
ATOM     20  C   UNL     1      -3.300  15.210  32.492  0.00  0.00    +0.002 A 
ATOM     21  C   UNL     1      -4.039  14.596  31.481  0.00  0.00    +0.028 A 
BRANCH  17  22
ATOM     22  C   UNL     1      -2.816  10.989  31.840  0.00  0.00    +0.244 C 
ATOM     23  O   UNL     1      -2.816  10.158  32.734  0.00  0.00    -0.270 OA
ATOM     24  N   UNL     1      -2.563  10.607  30.549  0.00  0.00    -0.325 N 
ATOM     25  H   UNL     1      -2.403   9.620  30.383  0.00  0.00    +0.145 HD
ATOM     26  H   UNL     1      -2.558  11.228  29.753  0.00  0.00    +0.145 HD
ENDBRANCH  17  22
ENDBRANCH  14  16
ENDBRANCH  10  12
ENDBRANCH   9  10
ENDBRANCH   5   9
ENDBRANCH   4   7
ENDBRANCH   1   4
BRANCH   1  27
ATOM     27  C   UNL     1      -3.847  10.521  23.224  0.00  0.00    +0.175 C 
BRANCH  27  28
ATOM     28  C   UNL     1      -4.202   9.779  24.521  0.00  0.00    +0.176 C 
ATOM     29  O   UNL     1      -3.015   9.070  24.971  0.00  0.00    -0.332 OA
ATOM     30  C   UNL     1      -3.136   8.385  26.261  0.00  0.00    +0.277 C 
ATOM     31  C   UNL     1      -4.349   7.422  26.251  0.00  0.00    +0.110 C 
ATOM     32  C   UNL     1      -5.629   8.123  25.750  0.00  0.00    +0.143 C 
ATOM     33  C   UNL     1      -5.389   8.805  24.402  0.00  0.00    +0.133 C 
BRANCH  33  34
ATOM     34  N   UNL     1      -6.589   9.542  23.977  0.00  0.00    -0.308 N 
ATOM     35  H   UNL     1      -6.932  10.274  24.582  0.00  0.00    +0.149 HD
ATOM     36  C   UNL     1      -7.255   9.306  22.843  0.00  0.00    +0.210 C 
ATOM     37  C   UNL     1      -6.722   8.166  21.954  0.00  0.00    +0.109 C 
ATOM     38  O   UNL     1      -8.249   9.950  22.505  0.00  0.00    -0.276 OA
ENDBRANCH  33  34
BRANCH  30  39
ATOM     39  C   UNL     1      -3.297   9.404  27.408  0.00  0.00    +0.414 C 
ATOM     40  O   UNL     1      -2.699  10.479  27.371  0.00  0.00    -0.240 OA
ATOM     41  O   UNL     1      -4.024   9.152  28.370  0.00  0.00    -0.240 OA
ENDBRANCH  30  39
BRANCH  32  42
ATOM     42  O   UNL     1      -6.680   7.166  25.613  0.00  0.00    -0.390 OA
ATOM     43  H   UNL     1      -6.390   6.320  25.961  0.00  0.00    +0.210 HD
ENDBRANCH  32  42
BRANCH  30  44
ATOM     44  O   UNL     1      -1.932   7.602  26.469  0.00  0.00    -0.343 OA
ATOM     45  C   UNL     1      -2.146   6.293  27.053  0.00  0.00    +0.198 C 
ENDBRANCH  30  44
ENDBRANCH  27  28
BRANCH  27  46
ATOM     46  O   UNL     1      -3.163   9.634  22.317  0.00  0.00    -0.387 OA
ATOM     47  H   UNL     1      -2.426  10.097  21.910  0.00  0.00    +0.210 HD
ENDBRANCH  27  46
ENDBRANCH   1  27
TORSDOF 15
