REMARK VINA RESULT:    -4.855      1.703      2.470
REMARK INTER + INTRA:         -12.366
REMARK INTER:                  -8.765
REMARK INTRA:                  -3.602
REMARK UNBOUND:                -3.679
REMARK  Name = lig_assembled_0.pdb
REMARK  17 active torsions:
REMARK  status: ('A' for Active; 'I' for Inactive)
REMARK    1  A    between atoms: _2  and  _10
REMARK    2  A    between atoms: _5  and  _21
REMARK    3  A    between atoms: _7  and  _8
REMARK    4  A    between atoms: _7  and  _21
REMARK    5  A    between atoms: _11  and  _12
REMARK    6  A    between atoms: _17  and  _37
REMARK    7  A    between atoms: _19  and  _25
REMARK    8  A    between atoms: _20  and  _24
REMARK    9  A    between atoms: _24  and  _25
REMARK   10  A    between atoms: _27  and  _28
REMARK   11  A    between atoms: _29  and  _30
REMARK   12  A    between atoms: _31  and  _33
REMARK   13  A    between atoms: _33  and  _34
REMARK   14  A    between atoms: _33  and  _35
REMARK   15  A    between atoms: _35  and  _36
REMARK   16  A    between atoms: _35  and  _37
REMARK   17  A    between atoms: _38  and  _40
REMARK                            x       y       z     vdW  Elec       q    Type
REMARK                         _______ _______ _______ _____ _____    ______ ____
ROOT
ATOM      1  C   UNL     1      -5.561   9.125  23.389  0.00  0.00    +0.163 C 
ENDROOT
BRANCH   1   2
ATOM      2  O   UNL     1      -5.961   9.318  24.756  0.00  0.00    -0.388 OA
ATOM      3  H   UNL     1      -6.556  10.069  24.814  0.00  0.00    +0.210 HD
ENDBRANCH   1   2
BRANCH   1   4
ATOM      4  C   UNL     1      -5.317   7.644  23.120  0.00  0.00    +0.141 C 
BRANCH   4   7
ATOM      5  C   UNL     1      -3.240   6.474  23.771  0.00  0.00    +0.401 C 
ATOM      6  O   UNL     1      -2.830   6.361  22.613  0.00  0.00    -0.226 OA
ATOM      7  N   UNL     1      -4.395   7.055  24.099  0.00  0.00    -0.279 N 
ATOM      8  H   UNL     1      -4.650   7.091  25.076  0.00  0.00    +0.152 HD
BRANCH   5   9
ATOM      9  O   UNL     1      -2.448   5.955  24.842  0.00  0.00    -0.444 OA
BRANCH   9  10
ATOM     10  C   UNL     1      -3.195   6.013  26.060  0.00  0.00    +0.292 C 
BRANCH  10  12
ATOM     11  N   UNL     1      -1.634   7.763  26.827  0.00  0.00    -0.131 NA
ATOM     12  C   UNL     1      -2.901   7.265  26.784  0.00  0.00    +0.121 A 
ATOM     13  C   UNL     1      -3.743   8.113  27.467  0.00  0.00    +0.143 A 
ATOM     14  N   UNL     1      -2.923   9.081  28.000  0.00  0.00    -0.219 N 
ATOM     15  N   UNL     1      -1.662   8.889  27.521  0.00  0.00    -0.060 NA
BRANCH  14  16
ATOM     16  C   UNL     1      -3.223  10.214  28.807  0.00  0.00    +0.079 A 
ATOM     17  C   UNL     1      -3.527  11.498  28.311  0.00  0.00    +0.062 A 
ATOM     18  C   UNL     1      -3.764  12.544  29.229  0.00  0.00    +0.015 A 
ATOM     19  C   UNL     1      -3.689  12.334  30.606  0.00  0.00    +0.001 A 
ATOM     20  C   UNL     1      -3.404  11.067  31.094  0.00  0.00    +0.002 A 
ATOM     21  C   UNL     1      -3.184  10.015  30.207  0.00  0.00    +0.028 A 
BRANCH  17  22
ATOM     22  C   UNL     1      -3.802  11.794  26.877  0.00  0.00    +0.244 C 
ATOM     23  O   UNL     1      -2.908  11.974  26.064  0.00  0.00    -0.270 OA
ATOM     24  N   UNL     1      -5.111  11.823  26.474  0.00  0.00    -0.325 N 
ATOM     25  H   UNL     1      -5.286  11.975  25.488  0.00  0.00    +0.145 HD
ATOM     26  H   UNL     1      -5.904  11.671  27.079  0.00  0.00    +0.145 HD
ENDBRANCH  17  22
ENDBRANCH  14  16
ENDBRANCH  10  12
ENDBRANCH   9  10
ENDBRANCH   5   9
ENDBRANCH   4   7
ENDBRANCH   1   4
BRANCH   1  27
ATOM     27  C   UNL     1      -4.284   9.922  23.072  0.00  0.00    +0.175 C 
BRANCH  27  28
ATOM     28  C   UNL     1      -4.597  11.306  22.484  0.00  0.00    +0.176 C 
ATOM     29  O   UNL     1      -5.158  12.127  23.545  0.00  0.00    -0.332 OA
ATOM     30  C   UNL     1      -5.423  13.525  23.193  0.00  0.00    +0.277 C 
ATOM     31  C   UNL     1      -6.325  13.605  21.937  0.00  0.00    +0.110 C 
ATOM     32  C   UNL     1      -5.786  12.722  20.791  0.00  0.00    +0.143 C 
ATOM     33  C   UNL     1      -5.544  11.290  21.269  0.00  0.00    +0.133 C 
BRANCH  33  34
ATOM     34  N   UNL     1      -4.949  10.482  20.193  0.00  0.00    -0.308 N 
ATOM     35  H   UNL     1      -4.011  10.710  19.895  0.00  0.00    +0.149 HD
ATOM     36  C   UNL     1      -5.567   9.467  19.584  0.00  0.00    +0.210 C 
ATOM     37  C   UNL     1      -7.006   9.161  20.043  0.00  0.00    +0.109 C 
ATOM     38  O   UNL     1      -5.039   8.798  18.696  0.00  0.00    -0.276 OA
ENDBRANCH  33  34
BRANCH  30  39
ATOM     39  C   UNL     1      -4.105  14.282  22.929  0.00  0.00    +0.414 C 
ATOM     40  O   UNL     1      -3.038  13.834  23.348  0.00  0.00    -0.240 OA
ATOM     41  O   UNL     1      -4.107  15.339  22.297  0.00  0.00    -0.240 OA
ENDBRANCH  30  39
BRANCH  32  42
ATOM     42  O   UNL     1      -6.724  12.707  19.714  0.00  0.00    -0.390 OA
ATOM     43  H   UNL     1      -6.251  12.687  18.878  0.00  0.00    +0.210 HD
ENDBRANCH  32  42
BRANCH  30  44
ATOM     44  O   UNL     1      -6.127  14.142  24.302  0.00  0.00    -0.343 OA
ATOM     45  C   UNL     1      -7.400  14.744  23.959  0.00  0.00    +0.198 C 
ENDBRANCH  30  44
ENDBRANCH  27  28
BRANCH  27  46
ATOM     46  O   UNL     1      -3.445   9.176  22.168  0.00  0.00    -0.387 OA
ATOM     47  H   UNL     1      -3.515   8.239  22.365  0.00  0.00    +0.210 HD
ENDBRANCH  27  46
ENDBRANCH   1  27
TORSDOF 15
