REMARK VINA RESULT:    -4.654      3.620     11.011
REMARK INTER + INTRA:         -11.292
REMARK INTER:                  -8.063
REMARK INTRA:                  -3.230
REMARK UNBOUND:                -2.966
REMARK  Name = lig_assembled_89.pdb
REMARK  19 active torsions:
REMARK  status: ('A' for Active; 'I' for Inactive)
REMARK    1  A    between atoms: _2  and  _12
REMARK    2  A    between atoms: _5  and  _20
REMARK    3  A    between atoms: _7  and  _29
REMARK    4  A    between atoms: _9  and  _10
REMARK    5  A    between atoms: _9  and  _29
REMARK    6  A    between atoms: _20  and  _21
REMARK    7  A    between atoms: _20  and  _22
REMARK    8  A    between atoms: _25  and  _45
REMARK    9  A    between atoms: _27  and  _33
REMARK   10  A    between atoms: _28  and  _32
REMARK   11  A    between atoms: _32  and  _33
REMARK   12  A    between atoms: _35  and  _36
REMARK   13  A    between atoms: _37  and  _38
REMARK   14  A    between atoms: _39  and  _41
REMARK   15  A    between atoms: _41  and  _42
REMARK   16  A    between atoms: _41  and  _43
REMARK   17  A    between atoms: _43  and  _44
REMARK   18  A    between atoms: _43  and  _45
REMARK   19  A    between atoms: _46  and  _48
REMARK                            x       y       z     vdW  Elec       q    Type
REMARK                         _______ _______ _______ _____ _____    ______ ____
ROOT
ATOM      1  C   UNL     1      -5.075  14.063  22.956  0.00  0.00    +0.401 C 
ATOM      2  O   UNL     1      -5.552  14.795  23.826  0.00  0.00    -0.226 OA
ATOM      3  N   UNL     1      -4.017  13.273  23.144  0.00  0.00    -0.279 N 
ATOM      4  H   UNL     1      -3.705  12.702  22.371  0.00  0.00    +0.152 HD
ENDROOT
BRANCH   3   5
ATOM      5  C   UNL     1      -3.280  13.187  24.411  0.00  0.00    +0.141 C 
BRANCH   5   6
ATOM      6  C   UNL     1      -2.825  11.762  24.708  0.00  0.00    +0.163 C 
BRANCH   6   7
ATOM      7  O   UNL     1      -2.856  11.521  26.124  0.00  0.00    -0.388 OA
ATOM      8  H   UNL     1      -3.766  11.409  26.410  0.00  0.00    +0.210 HD
ENDBRANCH   6   7
BRANCH   6   9
ATOM      9  C   UNL     1      -3.730  10.767  23.961  0.00  0.00    +0.175 C 
BRANCH   9  10
ATOM     10  C   UNL     1      -4.100   9.557  24.831  0.00  0.00    +0.176 C 
ATOM     11  O   UNL     1      -2.865   8.951  25.302  0.00  0.00    -0.332 OA
ATOM     12  C   UNL     1      -3.025   7.835  26.240  0.00  0.00    +0.277 C 
ATOM     13  C   UNL     1      -3.944   6.746  25.635  0.00  0.00    +0.110 C 
ATOM     14  C   UNL     1      -5.257   7.348  25.091  0.00  0.00    +0.143 C 
ATOM     15  C   UNL     1      -4.974   8.501  24.128  0.00  0.00    +0.133 C 
BRANCH  15  16
ATOM     16  N   UNL     1      -6.232   9.122  23.684  0.00  0.00    -0.308 N 
ATOM     17  H   UNL     1      -6.780   9.621  24.371  0.00  0.00    +0.149 HD
ATOM     18  C   UNL     1      -6.697   9.069  22.433  0.00  0.00    +0.210 C 
ATOM     19  C   UNL     1      -5.852   8.279  21.416  0.00  0.00    +0.109 C 
ATOM     20  O   UNL     1      -7.747   9.611  22.086  0.00  0.00    -0.276 OA
ENDBRANCH  15  16
BRANCH  12  21
ATOM     21  C   UNL     1      -3.617   8.326  27.578  0.00  0.00    +0.414 C 
ATOM     22  O   UNL     1      -4.512   7.687  28.131  0.00  0.00    -0.240 OA
ATOM     23  O   UNL     1      -3.201   9.359  28.104  0.00  0.00    -0.240 OA
ENDBRANCH  12  21
BRANCH  14  24
ATOM     24  O   UNL     1      -6.003   6.338  24.410  0.00  0.00    -0.390 OA
ATOM     25  H   UNL     1      -5.590   5.483  24.552  0.00  0.00    +0.210 HD
ENDBRANCH  14  24
BRANCH  12  26
ATOM     26  O   UNL     1      -1.716   7.252  26.471  0.00  0.00    -0.343 OA
ATOM     27  C   UNL     1      -1.731   5.893  26.977  0.00  0.00    +0.198 C 
ENDBRANCH  12  26
ENDBRANCH   9  10
BRANCH   9  28
ATOM     28  O   UNL     1      -3.089  10.328  22.746  0.00  0.00    -0.387 OA
ATOM     29  H   UNL     1      -3.048  11.058  22.124  0.00  0.00    +0.210 HD
ENDBRANCH   9  28
ENDBRANCH   6   9
ENDBRANCH   5   6
ENDBRANCH   3   5
BRANCH   1  30
ATOM     30  O   UNL     1      -5.678  14.041  21.659  0.00  0.00    -0.444 OA
BRANCH  30  31
ATOM     31  C   UNL     1      -6.357  12.797  21.470  0.00  0.00    +0.292 C 
BRANCH  31  33
ATOM     32  N   UNL     1      -4.331  11.678  20.622  0.00  0.00    -0.131 NA
ATOM     33  C   UNL     1      -5.652  11.979  20.469  0.00  0.00    +0.121 A 
ATOM     34  C   UNL     1      -6.115  11.390  19.317  0.00  0.00    +0.145 A 
ATOM     35  N   UNL     1      -5.032  10.705  18.799  0.00  0.00    -0.199 N 
ATOM     36  N   UNL     1      -3.967  10.900  19.611  0.00  0.00    -0.059 NA
BRANCH  35  37
ATOM     37  C   UNL     1      -5.054   9.851  17.658  0.00  0.00    +0.186 A 
ATOM     38  C   UNL     1      -5.067  10.173  16.316  0.00  0.00    +0.158 A 
ATOM     39  C   UNL     1      -5.188  11.409  15.605  0.00  0.00    +0.280 A 
ATOM     40  O   UNL     1      -5.654  12.417  16.118  0.00  0.00    -0.265 OA
ATOM     41  N   UNL     1      -4.762  11.374  14.262  0.00  0.00    -0.302 N 
ATOM     42  C   UNL     1      -4.671  10.113  13.561  0.00  0.00    +0.069 A 
ATOM     43  C   UNL     1      -4.526  10.028  12.169  0.00  0.00    +0.028 A 
ATOM     44  C   UNL     1      -4.492   8.787  11.517  0.00  0.00    +0.002 A 
ATOM     45  C   UNL     1      -4.592   7.604  12.242  0.00  0.00    +0.002 A 
ATOM     46  C   UNL     1      -4.723   7.651  13.626  0.00  0.00    +0.028 A 
ATOM     47  C   UNL     1      -4.770   8.896  14.272  0.00  0.00    +0.072 A 
ATOM     48  N   UNL     1      -4.910   8.978  15.666  0.00  0.00    -0.291 N 
ATOM     49  C   UNL     1      -4.925   7.990  16.617  0.00  0.00    +0.207 A 
ATOM     50  N   UNL     1      -4.999   8.482  17.836  0.00  0.00    -0.216 NA
BRANCH  41  51
ATOM     51  C   UNL     1      -4.618  12.664  13.547  0.00  0.00    +0.085 C 
ATOM     52  C   UNL     1      -3.720  13.681  14.278  0.00  0.00    +0.030 C 
ATOM     53  C   UNL     1      -5.974  13.287  13.220  0.00  0.00    +0.030 C 
ENDBRANCH  41  51
ENDBRANCH  35  37
ENDBRANCH  31  33
ENDBRANCH  30  31
ENDBRANCH   1  30
TORSDOF 15
