REMARK VINA RESULT:    -5.307      3.056      9.016
REMARK INTER + INTRA:         -11.798
REMARK INTER:                  -8.381
REMARK INTRA:                  -3.417
REMARK UNBOUND:                -2.303
REMARK  Name = lig_assembled_4.pdb
REMARK  19 active torsions:
REMARK  status: ('A' for Active; 'I' for Inactive)
REMARK    1  A    between atoms: _2  and  _9
REMARK    2  A    between atoms: _4  and  _21
REMARK    3  A    between atoms: _6  and  _7
REMARK    4  A    between atoms: _6  and  _21
REMARK    5  A    between atoms: _10  and  _11
REMARK    6  A    between atoms: _11  and  _12
REMARK    7  A    between atoms: _11  and  _13
REMARK    8  A    between atoms: _17  and  _37
REMARK    9  A    between atoms: _19  and  _25
REMARK   10  A    between atoms: _20  and  _24
REMARK   11  A    between atoms: _24  and  _25
REMARK   12  A    between atoms: _27  and  _28
REMARK   13  A    between atoms: _29  and  _30
REMARK   14  A    between atoms: _31  and  _33
REMARK   15  A    between atoms: _33  and  _34
REMARK   16  A    between atoms: _33  and  _35
REMARK   17  A    between atoms: _35  and  _36
REMARK   18  A    between atoms: _35  and  _37
REMARK   19  A    between atoms: _38  and  _40
REMARK                            x       y       z     vdW  Elec       q    Type
REMARK                         _______ _______ _______ _____ _____    ______ ____
ROOT
ATOM      1  C   UNL     1      -2.950  11.746  24.815  0.00  0.00    +0.163 C 
ENDROOT
BRANCH   1   2
ATOM      2  O   UNL     1      -3.224  11.642  26.222  0.00  0.00    -0.388 OA
ATOM      3  H   UNL     1      -2.397  11.631  26.710  0.00  0.00    +0.210 HD
ENDBRANCH   1   2
BRANCH   1   4
ATOM      4  C   UNL     1      -3.060  13.200  24.368  0.00  0.00    +0.141 C 
BRANCH   4   7
ATOM      5  C   UNL     1      -4.225  14.075  22.372  0.00  0.00    +0.401 C 
ATOM      6  O   UNL     1      -3.205  14.556  21.872  0.00  0.00    -0.226 OA
ATOM      7  N   UNL     1      -4.250  13.430  23.539  0.00  0.00    -0.279 N 
ATOM      8  H   UNL     1      -5.137  13.079  23.872  0.00  0.00    +0.152 HD
BRANCH   5   9
ATOM      9  O   UNL     1      -5.468  14.209  21.679  0.00  0.00    -0.444 OA
BRANCH   9  10
ATOM     10  C   UNL     1      -6.085  12.925  21.552  0.00  0.00    +0.292 C 
BRANCH  10  12
ATOM     11  N   UNL     1      -7.119  12.460  19.359  0.00  0.00    -0.131 NA
ATOM     12  C   UNL     1      -6.017  12.450  20.158  0.00  0.00    +0.121 A 
ATOM     13  C   UNL     1      -4.958  11.916  19.459  0.00  0.00    +0.143 A 
ATOM     14  N   UNL     1      -5.503  11.489  18.262  0.00  0.00    -0.219 N 
ATOM     15  N   UNL     1      -6.788  11.899  18.203  0.00  0.00    -0.060 NA
BRANCH  14  16
ATOM     16  C   UNL     1      -4.865  10.719  17.244  0.00  0.00    +0.070 A 
ATOM     17  C   UNL     1      -4.463  11.261  15.992  0.00  0.00    -0.019 A 
ATOM     18  C   UNL     1      -3.870  10.379  15.061  0.00  0.00    +0.006 A 
ATOM     19  C   UNL     1      -3.690   9.022  15.334  0.00  0.00    +0.000 A 
ATOM     20  C   UNL     1      -4.079   8.507  16.561  0.00  0.00    +0.002 A 
ATOM     21  C   UNL     1      -4.663   9.346  17.508  0.00  0.00    +0.028 A 
BRANCH  17  22
ATOM     22  C   UNL     1      -4.640  12.727  15.590  0.00  0.00    +0.015 C 
ATOM     23  C   UNL     1      -5.987  13.063  14.931  0.00  0.00    +0.012 C 
ATOM     24  C   UNL     1      -3.492  13.159  14.675  0.00  0.00    +0.012 C 
ENDBRANCH  17  22
ENDBRANCH  14  16
ENDBRANCH  10  12
ENDBRANCH   9  10
ENDBRANCH   5   9
ENDBRANCH   4   7
ENDBRANCH   1   4
BRANCH   1  25
ATOM     25  C   UNL     1      -3.928  10.883  23.999  0.00  0.00    +0.175 C 
BRANCH  25  26
ATOM     26  C   UNL     1      -4.279   9.572  24.718  0.00  0.00    +0.176 C 
ATOM     27  O   UNL     1      -3.045   8.997  25.229  0.00  0.00    -0.332 OA
ATOM     28  C   UNL     1      -3.197   7.787  26.041  0.00  0.00    +0.277 C 
ATOM     29  C   UNL     1      -3.993   6.710  25.263  0.00  0.00    +0.110 C 
ATOM     30  C   UNL     1      -5.300   7.282  24.674  0.00  0.00    +0.143 C 
ATOM     31  C   UNL     1      -5.025   8.541  23.850  0.00  0.00    +0.133 C 
BRANCH  31  32
ATOM     32  N   UNL     1      -6.285   9.126  23.367  0.00  0.00    -0.308 N 
ATOM     33  H   UNL     1      -6.927   9.497  24.053  0.00  0.00    +0.149 HD
ATOM     34  C   UNL     1      -6.637   9.198  22.080  0.00  0.00    +0.210 C 
ATOM     35  C   UNL     1      -5.650   8.600  21.061  0.00  0.00    +0.109 C 
ATOM     36  O   UNL     1      -7.693   9.707  21.703  0.00  0.00    -0.276 OA
ENDBRANCH  31  32
BRANCH  28  37
ATOM     37  C   UNL     1      -3.920   8.105  27.366  0.00  0.00    +0.414 C 
ATOM     38  O   UNL     1      -3.806   9.215  27.884  0.00  0.00    -0.240 OA
ATOM     39  O   UNL     1      -4.617   7.252  27.918  0.00  0.00    -0.240 OA
ENDBRANCH  28  37
BRANCH  30  40
ATOM     40  O   UNL     1      -5.923   6.303  23.842  0.00  0.00    -0.390 OA
ATOM     41  H   UNL     1      -6.816   6.584  23.630  0.00  0.00    +0.210 HD
ENDBRANCH  30  40
BRANCH  28  42
ATOM     42  O   UNL     1      -1.873   7.263  26.320  0.00  0.00    -0.343 OA
ATOM     43  C   UNL     1      -1.757   5.820  26.245  0.00  0.00    +0.198 C 
ENDBRANCH  28  42
ENDBRANCH  25  26
BRANCH  25  44
ATOM     44  O   UNL     1      -3.376  10.603  22.697  0.00  0.00    -0.387 OA
ATOM     45  H   UNL     1      -2.503  10.215  22.796  0.00  0.00    +0.210 HD
ENDBRANCH  25  44
ENDBRANCH   1  25
TORSDOF 15
