REMARK VINA RESULT:    -4.955      5.728     11.569
REMARK INTER + INTRA:         -10.863
REMARK INTER:                  -8.914
REMARK INTRA:                  -1.950
REMARK UNBOUND:                -2.287
REMARK  Name = lig_assembled_52.pdb
REMARK  16 active torsions:
REMARK  status: ('A' for Active; 'I' for Inactive)
REMARK    1  A    between atoms: _2  and  _10
REMARK    2  A    between atoms: _5  and  _18
REMARK    3  A    between atoms: _7  and  _8
REMARK    4  A    between atoms: _7  and  _18
REMARK    5  A    between atoms: _14  and  _34
REMARK    6  A    between atoms: _16  and  _22
REMARK    7  A    between atoms: _17  and  _21
REMARK    8  A    between atoms: _21  and  _22
REMARK    9  A    between atoms: _24  and  _25
REMARK   10  A    between atoms: _26  and  _27
REMARK   11  A    between atoms: _28  and  _30
REMARK   12  A    between atoms: _30  and  _31
REMARK   13  A    between atoms: _30  and  _32
REMARK   14  A    between atoms: _32  and  _33
REMARK   15  A    between atoms: _32  and  _34
REMARK   16  A    between atoms: _35  and  _37
REMARK                            x       y       z     vdW  Elec       q    Type
REMARK                         _______ _______ _______ _____ _____    ______ ____
ROOT
ATOM      1  C   UNL     1      -4.016  10.878  22.047  0.00  0.00    +0.163 C 
ENDROOT
BRANCH   1   2
ATOM      2  O   UNL     1      -3.984   9.444  21.967  0.00  0.00    -0.388 OA
ATOM      3  H   UNL     1      -4.584   9.073  22.618  0.00  0.00    +0.210 HD
ENDBRANCH   1   2
BRANCH   1   4
ATOM      4  C   UNL     1      -3.819  11.483  20.661  0.00  0.00    +0.141 C 
BRANCH   4   7
ATOM      5  C   UNL     1      -5.499  10.466  19.162  0.00  0.00    +0.401 C 
ATOM      6  O   UNL     1      -4.894   9.397  19.054  0.00  0.00    -0.226 OA
ATOM      7  N   UNL     1      -5.067  11.498  19.888  0.00  0.00    -0.279 N 
ATOM      8  H   UNL     1      -5.629  12.337  19.907  0.00  0.00    +0.152 HD
BRANCH   5   9
ATOM      9  O   UNL     1      -6.741  10.634  18.473  0.00  0.00    -0.444 OA
BRANCH   9  10
ATOM     10  C   UNL     1      -6.628  10.104  17.149  0.00  0.00    +0.292 C 
BRANCH  10  12
ATOM     11  N   UNL     1      -6.435  12.358  16.150  0.00  0.00    -0.131 NA
ATOM     12  C   UNL     1      -5.969  11.080  16.261  0.00  0.00    +0.121 A 
ATOM     13  C   UNL     1      -4.866  10.933  15.452  0.00  0.00    +0.143 A 
ATOM     14  N   UNL     1      -4.682  12.167  14.873  0.00  0.00    -0.218 N 
ATOM     15  N   UNL     1      -5.651  13.011  15.302  0.00  0.00    -0.060 NA
BRANCH  14  16
ATOM     16  C   UNL     1      -3.669  12.582  13.983  0.00  0.00    +0.085 A 
ATOM     17  C   UNL     1      -3.335  13.929  13.817  0.00  0.00    +0.031 A 
ATOM     18  C   UNL     1      -2.339  14.276  12.906  0.00  0.00    +0.022 A 
ATOM     19  C   UNL     1      -1.711  13.267  12.197  0.00  0.00    +0.111 A 
ATOM     20  N   UNL     1      -2.005  11.957  12.341  0.00  0.00    -0.261 NA
ATOM     21  C   UNL     1      -2.977  11.639  13.230  0.00  0.00    +0.138 A 
ENDBRANCH  14  16
ENDBRANCH  10  12
ENDBRANCH   9  10
ENDBRANCH   5   9
ENDBRANCH   4   7
ENDBRANCH   1   4
BRANCH   1  22
ATOM     22  C   UNL     1      -2.923  11.401  22.996  0.00  0.00    +0.175 C 
BRANCH  22  23
ATOM     23  C   UNL     1      -3.246  11.105  24.468  0.00  0.00    +0.176 C 
ATOM     24  O   UNL     1      -3.158   9.667  24.665  0.00  0.00    -0.332 OA
ATOM     25  C   UNL     1      -3.333   9.205  26.045  0.00  0.00    +0.277 C 
ATOM     26  C   UNL     1      -4.667   9.732  26.627  0.00  0.00    +0.110 C 
ATOM     27  C   UNL     1      -4.821  11.252  26.413  0.00  0.00    +0.143 C 
ATOM     28  C   UNL     1      -4.616  11.623  24.943  0.00  0.00    +0.133 C 
BRANCH  28  29
ATOM     29  N   UNL     1      -4.679  13.082  24.766  0.00  0.00    -0.308 N 
ATOM     30  H   UNL     1      -3.940  13.639  25.173  0.00  0.00    +0.149 HD
ATOM     31  C   UNL     1      -5.648  13.719  24.104  0.00  0.00    +0.210 C 
ATOM     32  C   UNL     1      -6.773  12.845  23.519  0.00  0.00    +0.109 C 
ATOM     33  O   UNL     1      -5.667  14.942  23.959  0.00  0.00    -0.276 OA
ENDBRANCH  28  29
BRANCH  25  34
ATOM     34  C   UNL     1      -2.162   9.675  26.933  0.00  0.00    +0.414 C 
ATOM     35  O   UNL     1      -1.016   9.701  26.485  0.00  0.00    -0.240 OA
ATOM     36  O   UNL     1      -2.363  10.029  28.095  0.00  0.00    -0.240 OA
ENDBRANCH  25  34
BRANCH  27  37
ATOM     37  O   UNL     1      -6.124  11.668  26.826  0.00  0.00    -0.390 OA
ATOM     38  H   UNL     1      -6.586  12.060  26.081  0.00  0.00    +0.210 HD
ENDBRANCH  27  37
BRANCH  25  39
ATOM     39  O   UNL     1      -3.382   7.755  26.030  0.00  0.00    -0.343 OA
ATOM     40  C   UNL     1      -4.024   7.151  27.181  0.00  0.00    +0.198 C 
ENDBRANCH  25  39
ENDBRANCH  22  23
BRANCH  22  41
ATOM     41  O   UNL     1      -2.734  12.817  22.803  0.00  0.00    -0.387 OA
ATOM     42  H   UNL     1      -3.131  13.295  23.535  0.00  0.00    +0.210 HD
ENDBRANCH  22  41
ENDBRANCH   1  22
TORSDOF 14
