REMARK VINA RESULT:    -4.962      3.954      6.955
REMARK INTER + INTRA:         -11.723
REMARK INTER:                  -9.589
REMARK INTRA:                  -2.134
REMARK UNBOUND:                -2.844
REMARK  Name = lig_assembled_44.pdb
REMARK  17 active torsions:
REMARK  status: ('A' for Active; 'I' for Inactive)
REMARK    1  A    between atoms: _2  and  _9
REMARK    2  A    between atoms: _4  and  _19
REMARK    3  A    between atoms: _6  and  _7
REMARK    4  A    between atoms: _6  and  _19
REMARK    5  A    between atoms: _9  and  _10
REMARK    6  A    between atoms: _15  and  _35
REMARK    7  A    between atoms: _17  and  _23
REMARK    8  A    between atoms: _18  and  _22
REMARK    9  A    between atoms: _22  and  _23
REMARK   10  A    between atoms: _25  and  _26
REMARK   11  A    between atoms: _27  and  _28
REMARK   12  A    between atoms: _29  and  _31
REMARK   13  A    between atoms: _31  and  _32
REMARK   14  A    between atoms: _31  and  _33
REMARK   15  A    between atoms: _33  and  _34
REMARK   16  A    between atoms: _33  and  _35
REMARK   17  A    between atoms: _36  and  _38
REMARK                            x       y       z     vdW  Elec       q    Type
REMARK                         _______ _______ _______ _____ _____    ______ ____
ROOT
ATOM      1  C   UNL     1      -5.747  12.041  27.425  0.00  0.00    +0.163 C 
ENDROOT
BRANCH   1   2
ATOM      2  O   UNL     1      -6.187  10.734  27.020  0.00  0.00    -0.388 OA
ATOM      3  H   UNL     1      -6.609  10.294  27.762  0.00  0.00    +0.210 HD
ENDBRANCH   1   2
BRANCH   1   4
ATOM      4  C   UNL     1      -4.450  12.400  26.709  0.00  0.00    +0.141 C 
BRANCH   4   7
ATOM      5  C   UNL     1      -3.019  11.493  24.909  0.00  0.00    +0.401 C 
ATOM      6  O   UNL     1      -2.123  12.324  25.074  0.00  0.00    -0.226 OA
ATOM      7  N   UNL     1      -4.144  11.458  25.625  0.00  0.00    -0.279 N 
ATOM      8  H   UNL     1      -4.825  10.743  25.409  0.00  0.00    +0.152 HD
BRANCH   5   9
ATOM      9  O   UNL     1      -2.866  10.499  23.893  0.00  0.00    -0.444 OA
BRANCH   9  10
ATOM     10  C   UNL     1      -4.141  10.205  23.316  0.00  0.00    +0.292 C 
BRANCH  10  12
ATOM     11  N   UNL     1      -3.273  11.639  21.490  0.00  0.00    -0.131 NA
ATOM     12  C   UNL     1      -4.302  10.917  22.033  0.00  0.00    +0.120 A 
ATOM     13  C   UNL     1      -5.390  10.983  21.195  0.00  0.00    +0.137 A 
ATOM     14  N   UNL     1      -4.936  11.693  20.123  0.00  0.00    -0.247 N 
ATOM     15  N   UNL     1      -3.676  12.121  20.321  0.00  0.00    -0.065 NA
BRANCH  14  16
ATOM     16  C   UNL     1      -5.633  12.001  18.890  0.00  0.00    +0.180 C 
BRANCH  16  17
ATOM     17  C   UNL     1      -4.941  11.387  17.695  0.00  0.00    -0.026 A 
ATOM     18  C   UNL     1      -4.878   9.993  17.544  0.00  0.00    +0.006 A 
ATOM     19  C   UNL     1      -4.224   9.428  16.447  0.00  0.00    +0.015 A 
ATOM     20  C   UNL     1      -3.629  10.254  15.495  0.00  0.00    +0.018 A 
ATOM     21 BR   UNL     1      -2.759   9.487  14.002  0.00  0.00    -0.050 Br
ATOM     22  C   UNL     1      -3.671  11.639  15.635  0.00  0.00    +0.015 A 
ATOM     23  C   UNL     1      -4.322  12.205  16.736  0.00  0.00    +0.006 A 
ENDBRANCH  16  17
ENDBRANCH  14  16
ENDBRANCH  10  12
ENDBRANCH   9  10
ENDBRANCH   5   9
ENDBRANCH   4   7
ENDBRANCH   1   4
BRANCH   1  24
ATOM     24  C   UNL     1      -5.528  12.101  28.946  0.00  0.00    +0.175 C 
BRANCH  24  25
ATOM     25  C   UNL     1      -4.365  11.206  29.398  0.00  0.00    +0.176 C 
ATOM     26  O   UNL     1      -4.870   9.850  29.534  0.00  0.00    -0.332 OA
ATOM     27  C   UNL     1      -3.869   8.830  29.859  0.00  0.00    +0.277 C 
ATOM     28  C   UNL     1      -3.086   9.227  31.135  0.00  0.00    +0.110 C 
ATOM     29  C   UNL     1      -2.556  10.674  31.050  0.00  0.00    +0.143 C 
ATOM     30  C   UNL     1      -3.680  11.651  30.704  0.00  0.00    +0.133 C 
BRANCH  30  31
ATOM     31  N   UNL     1      -3.147  13.012  30.541  0.00  0.00    -0.308 N 
ATOM     32  H   UNL     1      -2.451  13.164  29.825  0.00  0.00    +0.149 HD
ATOM     33  C   UNL     1      -3.524  14.061  31.277  0.00  0.00    +0.210 C 
ATOM     34  C   UNL     1      -4.568  13.793  32.377  0.00  0.00    +0.109 C 
ATOM     35  O   UNL     1      -3.071  15.194  31.109  0.00  0.00    -0.276 OA
ENDBRANCH  30  31
BRANCH  27  36
ATOM     36  C   UNL     1      -2.883   8.639  28.688  0.00  0.00    +0.414 C 
ATOM     37  O   UNL     1      -3.181   9.021  27.557  0.00  0.00    -0.240 OA
ATOM     38  O   UNL     1      -1.789   8.102  28.874  0.00  0.00    -0.240 OA
ENDBRANCH  27  36
BRANCH  27  39
ATOM     39  O   UNL     1      -4.565   7.584  30.119  0.00  0.00    -0.343 OA
ATOM     40  C   UNL     1      -5.995   7.620  29.880  0.00  0.00    +0.198 C 
ENDBRANCH  27  39
BRANCH  29  41
ATOM     41  O   UNL     1      -1.976  11.048  32.301  0.00  0.00    -0.390 OA
ATOM     42  H   UNL     1      -1.043  10.820  32.302  0.00  0.00    +0.210 HD
ENDBRANCH  29  41
ENDBRANCH  24  25
BRANCH  24  43
ATOM     43  O   UNL     1      -6.738  11.729  29.637  0.00  0.00    -0.387 OA
ATOM     44  H   UNL     1      -6.931  10.804  29.469  0.00  0.00    +0.210 HD
ENDBRANCH  24  43
ENDBRANCH   1  24
TORSDOF 15
