REMARK VINA RESULT:    -4.634      2.432      8.416
REMARK INTER + INTRA:         -12.165
REMARK INTER:                  -8.514
REMARK INTRA:                  -3.651
REMARK UNBOUND:                -3.060
REMARK  Name = lig_assembled_37.pdb
REMARK  21 active torsions:
REMARK  status: ('A' for Active; 'I' for Inactive)
REMARK    1  A    between atoms: _2  and  _9
REMARK    2  A    between atoms: _4  and  _24
REMARK    3  A    between atoms: _6  and  _7
REMARK    4  A    between atoms: _6  and  _24
REMARK    5  A    between atoms: _9  and  _10
REMARK    6  A    between atoms: _9  and  _11
REMARK    7  A    between atoms: _11  and  _18
REMARK    8  A    between atoms: _12  and  _13
REMARK    9  A    between atoms: _12  and  _18
REMARK   10  A    between atoms: _20  and  _40
REMARK   11  A    between atoms: _22  and  _28
REMARK   12  A    between atoms: _23  and  _27
REMARK   13  A    between atoms: _27  and  _28
REMARK   14  A    between atoms: _30  and  _31
REMARK   15  A    between atoms: _32  and  _33
REMARK   16  A    between atoms: _34  and  _36
REMARK   17  A    between atoms: _36  and  _37
REMARK   18  A    between atoms: _36  and  _38
REMARK   19  A    between atoms: _38  and  _39
REMARK   20  A    between atoms: _38  and  _40
REMARK   21  A    between atoms: _41  and  _43
REMARK                            x       y       z     vdW  Elec       q    Type
REMARK                         _______ _______ _______ _____ _____    ______ ____
ROOT
ATOM      1  C   UNL     1      -3.929  13.211  24.278  0.00  0.00    +0.141 C 
ENDROOT
BRANCH   1   4
ATOM      2  C   UNL     1      -5.959  12.866  25.643  0.00  0.00    +0.401 C 
ATOM      3  O   UNL     1      -6.697  12.689  24.670  0.00  0.00    -0.226 OA
ATOM      4  N   UNL     1      -4.654  13.122  25.551  0.00  0.00    -0.279 N 
ATOM      5  H   UNL     1      -4.134  13.262  26.406  0.00  0.00    +0.152 HD
BRANCH   2   6
ATOM      6  O   UNL     1      -6.517  12.802  26.958  0.00  0.00    -0.444 OA
BRANCH   6   7
ATOM      7  C   UNL     1      -5.763  13.640  27.838  0.00  0.00    +0.292 C 
BRANCH   7   9
ATOM      8  N   UNL     1      -6.435  12.317  29.824  0.00  0.00    -0.131 NA
ATOM      9  C   UNL     1      -5.451  12.924  29.089  0.00  0.00    +0.120 A 
ATOM     10  C   UNL     1      -4.240  12.732  29.714  0.00  0.00    +0.138 A 
ATOM     11  N   UNL     1      -4.553  12.026  30.837  0.00  0.00    -0.238 N 
ATOM     12  N   UNL     1      -5.873  11.763  30.889  0.00  0.00    -0.065 NA
BRANCH  11  13
ATOM     13  C   UNL     1      -3.679  11.504  31.869  0.00  0.00    +0.214 C 
ATOM     14  C   UNL     1      -2.737  10.435  31.316  0.00  0.00    +0.045 C 
BRANCH  13  15
ATOM     15  C   UNL     1      -2.886  12.612  32.526  0.00  0.00    +0.332 C 
ATOM     16  O   UNL     1      -1.676  12.759  32.397  0.00  0.00    -0.248 OA
BRANCH  15  17
ATOM     17  O   UNL     1      -3.690  13.413  33.274  0.00  0.00    -0.458 OA
BRANCH  17  18
ATOM     18  C   UNL     1      -3.335  14.804  33.315  0.00  0.00    +0.267 C 
BRANCH  18  19
ATOM     19  C   UNL     1      -4.276  15.602  32.450  0.00  0.00    -0.010 A 
ATOM     20  C   UNL     1      -5.528  15.999  32.940  0.00  0.00    +0.007 A 
ATOM     21  C   UNL     1      -6.389  16.761  32.149  0.00  0.00    +0.000 A 
ATOM     22  C   UNL     1      -6.010  17.132  30.861  0.00  0.00    +0.000 A 
ATOM     23  C   UNL     1      -4.771  16.738  30.360  0.00  0.00    +0.000 A 
ATOM     24  C   UNL     1      -3.909  15.974  31.149  0.00  0.00    +0.007 A 
ENDBRANCH  18  19
ENDBRANCH  17  18
ENDBRANCH  15  17
ENDBRANCH  13  15
ENDBRANCH  11  13
ENDBRANCH   7   9
ENDBRANCH   6   7
ENDBRANCH   2   6
ENDBRANCH   1   4
BRANCH   1  25
ATOM     25  C   UNL     1      -2.964  12.045  24.090  0.00  0.00    +0.163 C 
BRANCH  25  26
ATOM     26  O   UNL     1      -2.269  11.779  25.319  0.00  0.00    -0.388 OA
ATOM     27  H   UNL     1      -1.341  12.006  25.219  0.00  0.00    +0.210 HD
ENDBRANCH  25  26
BRANCH  25  28
ATOM     28  C   UNL     1      -3.742  10.805  23.619  0.00  0.00    +0.175 C 
BRANCH  28  29
ATOM     29  C   UNL     1      -4.113   9.877  24.785  0.00  0.00    +0.176 C 
ATOM     30  O   UNL     1      -2.920   9.138  25.165  0.00  0.00    -0.332 OA
ATOM     31  C   UNL     1      -3.058   8.272  26.341  0.00  0.00    +0.277 C 
ATOM     32  C   UNL     1      -4.244   7.294  26.156  0.00  0.00    +0.110 C 
ATOM     33  C   UNL     1      -5.528   8.032  25.721  0.00  0.00    +0.143 C 
ATOM     34  C   UNL     1      -5.270   8.904  24.492  0.00  0.00    +0.133 C 
BRANCH  34  35
ATOM     35  N   UNL     1      -6.477   9.668  24.140  0.00  0.00    -0.308 N 
ATOM     36  H   UNL     1      -6.862  10.290  24.837  0.00  0.00    +0.149 HD
ATOM     37  C   UNL     1      -7.097   9.594  22.959  0.00  0.00    +0.210 C 
ATOM     38  C   UNL     1      -6.501   8.618  21.927  0.00  0.00    +0.109 C 
ATOM     39  O   UNL     1      -8.099  10.256  22.687  0.00  0.00    -0.276 OA
ENDBRANCH  34  35
BRANCH  31  40
ATOM     40  C   UNL     1      -3.276   9.113  27.616  0.00  0.00    +0.414 C 
ATOM     41  O   UNL     1      -4.061   8.732  28.483  0.00  0.00    -0.240 OA
ATOM     42  O   UNL     1      -2.668  10.172  27.777  0.00  0.00    -0.240 OA
ENDBRANCH  31  40
BRANCH  31  43
ATOM     43  O   UNL     1      -1.840   7.495  26.471  0.00  0.00    -0.343 OA
ATOM     44  C   UNL     1      -2.016   6.172  27.037  0.00  0.00    +0.198 C 
ENDBRANCH  31  43
BRANCH  33  45
ATOM     45  O   UNL     1      -6.550   7.081  25.417  0.00  0.00    -0.390 OA
ATOM     46  H   UNL     1      -6.634   6.994  24.465  0.00  0.00    +0.210 HD
ENDBRANCH  33  45
ENDBRANCH  28  29
BRANCH  28  47
ATOM     47  O   UNL     1      -2.976  10.082  22.634  0.00  0.00    -0.387 OA
ATOM     48  H   UNL     1      -2.479   9.383  23.065  0.00  0.00    +0.210 HD
ENDBRANCH  28  47
ENDBRANCH  25  28
ENDBRANCH   1  25
TORSDOF 18
