REMARK VINA RESULT:    -4.771      7.965     11.776
REMARK INTER + INTRA:         -12.706
REMARK INTER:                  -9.319
REMARK INTRA:                  -3.387
REMARK UNBOUND:                -3.890
REMARK  Name = lig_assembled_66.pdb
REMARK  18 active torsions:
REMARK  status: ('A' for Active; 'I' for Inactive)
REMARK    1  A    between atoms: _2  and  _10
REMARK    2  A    between atoms: _5  and  _21
REMARK    3  A    between atoms: _7  and  _8
REMARK    4  A    between atoms: _7  and  _21
REMARK    5  A    between atoms: _10  and  _11
REMARK    6  A    between atoms: _15  and  _16
REMARK    7  A    between atoms: _17  and  _37
REMARK    8  A    between atoms: _19  and  _25
REMARK    9  A    between atoms: _20  and  _24
REMARK   10  A    between atoms: _24  and  _25
REMARK   11  A    between atoms: _27  and  _28
REMARK   12  A    between atoms: _29  and  _30
REMARK   13  A    between atoms: _31  and  _33
REMARK   14  A    between atoms: _33  and  _34
REMARK   15  A    between atoms: _33  and  _35
REMARK   16  A    between atoms: _35  and  _36
REMARK   17  A    between atoms: _35  and  _37
REMARK   18  A    between atoms: _38  and  _40
REMARK                            x       y       z     vdW  Elec       q    Type
REMARK                         _______ _______ _______ _____ _____    ______ ____
ROOT
ATOM      1  C   UNL     1      -1.868   8.486  13.472  0.00  0.00    +0.163 C 
ENDROOT
BRANCH   1   2
ATOM      2  O   UNL     1      -2.267   8.145  12.134  0.00  0.00    -0.388 OA
ATOM      3  H   UNL     1      -3.153   7.775  12.148  0.00  0.00    +0.210 HD
ENDBRANCH   1   2
BRANCH   1   4
ATOM      4  C   UNL     1      -2.835   9.511  14.090  0.00  0.00    +0.175 C 
BRANCH   4   5
ATOM      5  C   UNL     1      -3.122  10.681  13.137  0.00  0.00    +0.176 C 
ATOM      6  O   UNL     1      -1.867  11.068  12.513  0.00  0.00    -0.332 OA
ATOM      7  C   UNL     1      -1.964  12.110  11.486  0.00  0.00    +0.277 C 
ATOM      8  C   UNL     1      -2.676  13.363  12.052  0.00  0.00    +0.110 C 
ATOM      9  C   UNL     1      -4.001  12.997  12.753  0.00  0.00    +0.143 C 
ATOM     10  C   UNL     1      -3.785  11.903  13.800  0.00  0.00    +0.133 C 
BRANCH  10  11
ATOM     11  N   UNL     1      -5.067  11.502  14.399  0.00  0.00    -0.308 N 
ATOM     12  H   UNL     1      -5.738  11.033  13.807  0.00  0.00    +0.149 HD
ATOM     13  C   UNL     1      -5.403  11.719  15.674  0.00  0.00    +0.210 C 
ATOM     14  C   UNL     1      -4.369  12.460  16.543  0.00  0.00    +0.109 C 
ATOM     15  O   UNL     1      -6.478  11.359  16.153  0.00  0.00    -0.276 OA
ENDBRANCH  10  11
BRANCH   7  16
ATOM     16  C   UNL     1      -2.734  11.592  10.254  0.00  0.00    +0.414 C 
ATOM     17  O   UNL     1      -3.365  12.374   9.543  0.00  0.00    -0.240 OA
ATOM     18  O   UNL     1      -2.725  10.393   9.970  0.00  0.00    -0.240 OA
ENDBRANCH   7  16
BRANCH   7  19
ATOM     19  O   UNL     1      -0.617  12.485  11.098  0.00  0.00    -0.343 OA
ATOM     20  C   UNL     1      -0.297  13.887  11.278  0.00  0.00    +0.198 C 
ENDBRANCH   7  19
BRANCH   9  21
ATOM     21  O   UNL     1      -4.545  14.155  13.389  0.00  0.00    -0.390 OA
ATOM     22  H   UNL     1      -4.012  14.381  14.154  0.00  0.00    +0.210 HD
ENDBRANCH   9  21
ENDBRANCH   4   5
BRANCH   4  23
ATOM     23  O   UNL     1      -2.306  10.004  15.337  0.00  0.00    -0.387 OA
ATOM     24  H   UNL     1      -2.076  10.931  15.243  0.00  0.00    +0.210 HD
ENDBRANCH   4  23
ENDBRANCH   1   4
BRANCH   1  25
ATOM     25  C   UNL     1      -1.831   7.233  14.341  0.00  0.00    +0.141 C 
BRANCH  25  28
ATOM     26  C   UNL     1      -4.137   6.390  14.620  0.00  0.00    +0.401 C 
ATOM     27  O   UNL     1      -4.184   5.872  13.501  0.00  0.00    -0.226 OA
ATOM     28  N   UNL     1      -3.080   7.051  15.092  0.00  0.00    -0.279 N 
ATOM     29  H   UNL     1      -3.140   7.448  16.019  0.00  0.00    +0.152 HD
BRANCH  26  30
ATOM     30  O   UNL     1      -5.276   6.291  15.479  0.00  0.00    -0.444 OA
BRANCH  30  31
ATOM     31  C   UNL     1      -5.909   7.569  15.582  0.00  0.00    +0.292 C 
BRANCH  31  33
ATOM     32  N   UNL     1      -4.427   8.600  17.279  0.00  0.00    -0.131 NA
ATOM     33  C   UNL     1      -5.671   8.155  16.916  0.00  0.00    +0.120 A 
ATOM     34  C   UNL     1      -6.553   8.396  17.945  0.00  0.00    +0.137 A 
ATOM     35  N   UNL     1      -5.799   9.040  18.883  0.00  0.00    -0.247 N 
ATOM     36  N   UNL     1      -4.516   9.143  18.487  0.00  0.00    -0.065 NA
BRANCH  35  37
ATOM     37  C   UNL     1      -6.273   9.792  20.030  0.00  0.00    +0.180 C 
BRANCH  37  38
ATOM     38  C   UNL     1      -5.222  10.692  20.629  0.00  0.00    -0.025 A 
ATOM     39  C   UNL     1      -4.859  11.884  19.985  0.00  0.00    +0.005 A 
ATOM     40  C   UNL     1      -3.948  12.764  20.575  0.00  0.00    +0.002 A 
ATOM     41  C   UNL     1      -3.374  12.454  21.807  0.00  0.00    +0.019 A 
ATOM     42  C   UNL     1      -3.698  11.254  22.445  0.00  0.00    +0.052 A 
ATOM     43  C   UNL     1      -4.620  10.377  21.858  0.00  0.00    +0.024 A 
BRANCH  42  44
ATOM     44  C   UNL     1      -3.097  10.925  23.705  0.00  0.00    +0.099 C 
ATOM     45  N   UNL     1      -2.606  10.666  24.725  0.00  0.00    -0.191 NA
ENDBRANCH  42  44
ENDBRANCH  37  38
ENDBRANCH  35  37
ENDBRANCH  31  33
ENDBRANCH  30  31
ENDBRANCH  26  30
ENDBRANCH  25  28
ENDBRANCH   1  25
TORSDOF 16
