REMARK VINA RESULT:    -4.717      3.728      6.528
REMARK INTER + INTRA:         -12.011
REMARK INTER:                  -9.547
REMARK INTRA:                  -2.464
REMARK UNBOUND:                -3.157
REMARK  Name = lig_assembled_64.pdb
REMARK  19 active torsions:
REMARK  status: ('A' for Active; 'I' for Inactive)
REMARK    1  A    between atoms: _2  and  _10
REMARK    2  A    between atoms: _5  and  _27
REMARK    3  A    between atoms: _7  and  _8
REMARK    4  A    between atoms: _7  and  _27
REMARK    5  A    between atoms: _12  and  _13
REMARK    6  A    between atoms: _13  and  _21
REMARK    7  A    between atoms: _14  and  _15
REMARK    8  A    between atoms: _23  and  _43
REMARK    9  A    between atoms: _25  and  _31
REMARK   10  A    between atoms: _26  and  _30
REMARK   11  A    between atoms: _30  and  _31
REMARK   12  A    between atoms: _33  and  _34
REMARK   13  A    between atoms: _35  and  _36
REMARK   14  A    between atoms: _37  and  _39
REMARK   15  A    between atoms: _39  and  _40
REMARK   16  A    between atoms: _39  and  _41
REMARK   17  A    between atoms: _41  and  _42
REMARK   18  A    between atoms: _41  and  _43
REMARK   19  A    between atoms: _44  and  _46
REMARK                            x       y       z     vdW  Elec       q    Type
REMARK                         _______ _______ _______ _____ _____    ______ ____
ROOT
ATOM      1  C   UNL     1      -3.952  11.680  20.704  0.00  0.00    +0.401 C 
ATOM      2  O   UNL     1      -4.044  10.570  21.235  0.00  0.00    -0.226 OA
ATOM      3  N   UNL     1      -4.655  12.054  19.633  0.00  0.00    -0.279 N 
ATOM      4  H   UNL     1      -4.517  12.989  19.276  0.00  0.00    +0.152 HD
ENDROOT
BRANCH   3   5
ATOM      5  C   UNL     1      -5.616  11.183  18.945  0.00  0.00    +0.141 C 
BRANCH   5   6
ATOM      6  C   UNL     1      -4.919  10.152  18.064  0.00  0.00    +0.163 C 
BRANCH   6   7
ATOM      7  O   UNL     1      -5.632   8.905  18.109  0.00  0.00    -0.388 OA
ATOM      8  H   UNL     1      -6.323   8.955  18.774  0.00  0.00    +0.210 HD
ENDBRANCH   6   7
BRANCH   6   9
ATOM      9  C   UNL     1      -4.830  10.683  16.623  0.00  0.00    +0.175 C 
BRANCH   9  10
ATOM     10  C   UNL     1      -4.384   9.597  15.633  0.00  0.00    +0.176 C 
ATOM     11  O   UNL     1      -3.466   8.709  16.327  0.00  0.00    -0.332 OA
ATOM     12  C   UNL     1      -3.014   7.541  15.564  0.00  0.00    +0.277 C 
ATOM     13  C   UNL     1      -2.396   7.982  14.215  0.00  0.00    +0.110 C 
ATOM     14  C   UNL     1      -3.324   8.953  13.454  0.00  0.00    +0.143 C 
ATOM     15  C   UNL     1      -3.734  10.129  14.342  0.00  0.00    +0.133 C 
BRANCH  15  16
ATOM     16  N   UNL     1      -4.686  11.000  13.635  0.00  0.00    -0.308 N 
ATOM     17  H   UNL     1      -5.632  10.666  13.516  0.00  0.00    +0.149 HD
ATOM     18  C   UNL     1      -4.382  12.203  13.142  0.00  0.00    +0.210 C 
ATOM     19  C   UNL     1      -2.925  12.672  13.317  0.00  0.00    +0.109 C 
ATOM     20  O   UNL     1      -5.204  12.918  12.567  0.00  0.00    -0.276 OA
ENDBRANCH  15  16
BRANCH  12  21
ATOM     21  C   UNL     1      -4.186   6.572  15.303  0.00  0.00    +0.414 C 
ATOM     22  O   UNL     1      -5.128   6.511  16.092  0.00  0.00    -0.240 OA
ATOM     23  O   UNL     1      -4.189   5.852  14.303  0.00  0.00    -0.240 OA
ENDBRANCH  12  21
BRANCH  12  24
ATOM     24  O   UNL     1      -1.988   6.868  16.339  0.00  0.00    -0.343 OA
ATOM     25  C   UNL     1      -0.629   7.109  15.895  0.00  0.00    +0.198 C 
ENDBRANCH  12  24
BRANCH  14  26
ATOM     26  O   UNL     1      -2.654   9.451  12.295  0.00  0.00    -0.390 OA
ATOM     27  H   UNL     1      -3.248   9.417  11.542  0.00  0.00    +0.210 HD
ENDBRANCH  14  26
ENDBRANCH   9  10
BRANCH   9  28
ATOM     28  O   UNL     1      -3.932  11.809  16.563  0.00  0.00    -0.387 OA
ATOM     29  H   UNL     1      -3.300  11.753  17.284  0.00  0.00    +0.210 HD
ENDBRANCH   9  28
ENDBRANCH   6   9
ENDBRANCH   5   6
ENDBRANCH   3   5
BRANCH   1  30
ATOM     30  O   UNL     1      -3.049  12.641  21.255  0.00  0.00    -0.444 OA
BRANCH  30  31
ATOM     31  C   UNL     1      -3.782  13.607  22.013  0.00  0.00    +0.292 C 
BRANCH  31  33
ATOM     32  N   UNL     1      -5.233  13.316  24.004  0.00  0.00    -0.131 NA
ATOM     33  C   UNL     1      -4.040  13.106  23.376  0.00  0.00    +0.121 A 
ATOM     34  C   UNL     1      -3.213  12.394  24.214  0.00  0.00    +0.143 A 
ATOM     35  N   UNL     1      -3.950  12.197  25.358  0.00  0.00    -0.220 N 
ATOM     36  N   UNL     1      -5.173  12.759  25.207  0.00  0.00    -0.060 NA
BRANCH  35  37
ATOM     37  C   UNL     1      -3.570  11.523  26.544  0.00  0.00    +0.071 A 
ATOM     38  C   UNL     1      -2.970  10.270  26.478  0.00  0.00    +0.063 A 
ATOM     39  CA  UNL     1      -2.624   9.666  27.671  0.00  0.00    +0.150 A 
ATOM     40  N   UNL     1      -2.833  10.204  28.907  0.00  0.00    -0.240 NA
ATOM     41  C   UNL     1      -3.434  11.423  28.963  0.00  0.00    +0.074 A 
ATOM     42  C   UNL     1      -3.800  12.108  27.800  0.00  0.00    +0.056 A 
BRANCH  41  43
ATOM     43  C   UNL     1      -3.690  11.949  30.326  0.00  0.00    +0.000 A 
ATOM     44  C   UNL     1      -3.763  13.329  30.593  0.00  0.00    +0.010 A 
ATOM     45  C   UNL     1      -4.043  13.813  31.877  0.00  0.00    +0.001 A 
ATOM     46  C   UNL     1      -4.259  12.927  32.927  0.00  0.00    +0.000 A 
ATOM     47  C   UNL     1      -4.186  11.557  32.695  0.00  0.00    +0.001 A 
ATOM     48  C   UNL     1      -3.905  11.076  31.411  0.00  0.00    +0.010 A 
ENDBRANCH  41  43
BRANCH  39  49
ATOM     49  C   UNL     1      -1.978   8.322  27.648  0.00  0.00    +0.355 C 
ATOM     50  OXT UNL     1      -1.674   7.685  28.641  0.00  0.00    -0.243 OA
BRANCH  49  51
ATOM     51  O   UNL     1      -1.775   7.910  26.376  0.00  0.00    -0.476 OA
ATOM     52  H   UNL     1      -0.843   7.601  26.284  0.00  0.00    +0.295 HD
ENDBRANCH  49  51
ENDBRANCH  39  49
ENDBRANCH  35  37
ENDBRANCH  31  33
ENDBRANCH  30  31
ENDBRANCH   1  30
TORSDOF 17
