REMARK VINA RESULT:    -5.059      3.437      8.362
REMARK INTER + INTRA:         -11.355
REMARK INTER:                  -7.539
REMARK INTRA:                  -3.816
REMARK UNBOUND:                -2.303
REMARK  Name = lig_assembled_4.pdb
REMARK  19 active torsions:
REMARK  status: ('A' for Active; 'I' for Inactive)
REMARK    1  A    between atoms: _2  and  _9
REMARK    2  A    between atoms: _4  and  _21
REMARK    3  A    between atoms: _6  and  _7
REMARK    4  A    between atoms: _6  and  _21
REMARK    5  A    between atoms: _10  and  _11
REMARK    6  A    between atoms: _11  and  _12
REMARK    7  A    between atoms: _11  and  _13
REMARK    8  A    between atoms: _17  and  _37
REMARK    9  A    between atoms: _19  and  _25
REMARK   10  A    between atoms: _20  and  _24
REMARK   11  A    between atoms: _24  and  _25
REMARK   12  A    between atoms: _27  and  _28
REMARK   13  A    between atoms: _29  and  _30
REMARK   14  A    between atoms: _31  and  _33
REMARK   15  A    between atoms: _33  and  _34
REMARK   16  A    between atoms: _33  and  _35
REMARK   17  A    between atoms: _35  and  _36
REMARK   18  A    between atoms: _35  and  _37
REMARK   19  A    between atoms: _38  and  _40
REMARK                            x       y       z     vdW  Elec       q    Type
REMARK                         _______ _______ _______ _____ _____    ______ ____
ROOT
ATOM      1  C   UNL     1      -6.661   8.639  23.968  0.00  0.00    +0.163 C 
ENDROOT
BRANCH   1   2
ATOM      2  O   UNL     1      -5.295   8.278  24.228  0.00  0.00    -0.388 OA
ATOM      3  H   UNL     1      -5.267   7.427  24.673  0.00  0.00    +0.210 HD
ENDBRANCH   1   2
BRANCH   1   4
ATOM      4  C   UNL     1      -7.431   7.430  23.447  0.00  0.00    +0.141 C 
BRANCH   4   7
ATOM      5  C   UNL     1      -6.392   6.666  21.339  0.00  0.00    +0.401 C 
ATOM      6  O   UNL     1      -5.456   6.090  21.899  0.00  0.00    -0.226 OA
ATOM      7  N   UNL     1      -7.357   7.323  21.985  0.00  0.00    -0.279 N 
ATOM      8  H   UNL     1      -8.077   7.772  21.437  0.00  0.00    +0.152 HD
BRANCH   5   9
ATOM      9  O   UNL     1      -6.466   6.645  19.911  0.00  0.00    -0.444 OA
BRANCH   9  10
ATOM     10  C   UNL     1      -7.024   7.876  19.444  0.00  0.00    +0.292 C 
BRANCH  10  12
ATOM     11  N   UNL     1      -5.050   9.349  19.604  0.00  0.00    -0.131 NA
ATOM     12  C   UNL     1      -5.982   8.723  18.835  0.00  0.00    +0.121 A 
ATOM     13  C   UNL     1      -5.777   9.058  17.516  0.00  0.00    +0.143 A 
ATOM     14  N   UNL     1      -4.774  10.009  17.543  0.00  0.00    -0.219 N 
ATOM     15  N   UNL     1      -4.307  10.105  18.807  0.00  0.00    -0.060 NA
BRANCH  14  16
ATOM     16  C   UNL     1      -4.297  10.799  16.454  0.00  0.00    +0.070 A 
ATOM     17  C   UNL     1      -3.584  10.258  15.351  0.00  0.00    -0.019 A 
ATOM     18  C   UNL     1      -3.141  11.160  14.356  0.00  0.00    +0.006 A 
ATOM     19  C   UNL     1      -3.374  12.533  14.443  0.00  0.00    +0.000 A 
ATOM     20  C   UNL     1      -4.077  13.048  15.520  0.00  0.00    +0.002 A 
ATOM     21  C   UNL     1      -4.534  12.191  16.519  0.00  0.00    +0.028 A 
BRANCH  17  22
ATOM     22  C   UNL     1      -3.258   8.773  15.179  0.00  0.00    +0.015 C 
ATOM     23  C   UNL     1      -1.766   8.417  15.281  0.00  0.00    +0.012 C 
ATOM     24  C   UNL     1      -3.822   8.265  13.849  0.00  0.00    +0.012 C 
ENDBRANCH  17  22
ENDBRANCH  14  16
ENDBRANCH  10  12
ENDBRANCH   9  10
ENDBRANCH   5   9
ENDBRANCH   4   7
ENDBRANCH   1   4
BRANCH   1  25
ATOM     25  C   UNL     1      -6.743   9.782  22.941  0.00  0.00    +0.175 C 
BRANCH  25  26
ATOM     26  C   UNL     1      -5.655  10.841  23.168  0.00  0.00    +0.176 C 
ATOM     27  O   UNL     1      -5.547  11.072  24.600  0.00  0.00    -0.332 OA
ATOM     28  C   UNL     1      -4.477  11.983  25.016  0.00  0.00    +0.277 C 
ATOM     29  C   UNL     1      -4.601  13.338  24.276  0.00  0.00    +0.110 C 
ATOM     30  C   UNL     1      -4.750  13.143  22.753  0.00  0.00    +0.143 C 
ATOM     31  C   UNL     1      -5.889  12.174  22.433  0.00  0.00    +0.133 C 
BRANCH  31  32
ATOM     32  N   UNL     1      -5.965  11.929  20.984  0.00  0.00    -0.308 N 
ATOM     33  H   UNL     1      -5.250  11.351  20.565  0.00  0.00    +0.149 HD
ATOM     34  C   UNL     1      -6.918  12.420  20.186  0.00  0.00    +0.210 C 
ATOM     35  C   UNL     1      -7.979  13.317  20.851  0.00  0.00    +0.109 C 
ATOM     36  O   UNL     1      -6.965  12.185  18.978  0.00  0.00    -0.276 OA
ENDBRANCH  31  32
BRANCH  28  37
ATOM     37  C   UNL     1      -3.091  11.367  24.733  0.00  0.00    +0.414 C 
ATOM     38  O   UNL     1      -2.076  12.056  24.820  0.00  0.00    -0.240 OA
ATOM     39  O   UNL     1      -2.989  10.180  24.418  0.00  0.00    -0.240 OA
ENDBRANCH  28  37
BRANCH  30  40
ATOM     40  O   UNL     1      -5.013  14.400  22.129  0.00  0.00    -0.390 OA
ATOM     41  H   UNL     1      -4.298  15.011  22.325  0.00  0.00    +0.210 HD
ENDBRANCH  30  40
BRANCH  28  42
ATOM     42  O   UNL     1      -4.622  12.225  26.440  0.00  0.00    -0.343 OA
ATOM     43  C   UNL     1      -5.049  11.077  27.215  0.00  0.00    +0.198 C 
ENDBRANCH  28  42
ENDBRANCH  25  26
BRANCH  25  44
ATOM     44  O   UNL     1      -8.047  10.393  22.980  0.00  0.00    -0.387 OA
ATOM     45  H   UNL     1      -8.593   9.942  23.629  0.00  0.00    +0.210 HD
ENDBRANCH  25  44
ENDBRANCH   1  25
TORSDOF 15
