REMARK VINA RESULT:    -4.847      2.354      4.269
REMARK INTER + INTRA:         -11.541
REMARK INTER:                  -7.043
REMARK INTRA:                  -4.498
REMARK UNBOUND:                -2.869
REMARK  Name = lig_assembled_71.pdb
REMARK  17 active torsions:
REMARK  status: ('A' for Active; 'I' for Inactive)
REMARK    1  A    between atoms: _2  and  _12
REMARK    2  A    between atoms: _7  and  _22
REMARK    3  A    between atoms: _9  and  _10
REMARK    4  A    between atoms: _9  and  _22
REMARK    5  A    between atoms: _12  and  _13
REMARK    6  A    between atoms: _18  and  _38
REMARK    7  A    between atoms: _20  and  _26
REMARK    8  A    between atoms: _21  and  _25
REMARK    9  A    between atoms: _25  and  _26
REMARK   10  A    between atoms: _28  and  _29
REMARK   11  A    between atoms: _30  and  _31
REMARK   12  A    between atoms: _32  and  _34
REMARK   13  A    between atoms: _34  and  _35
REMARK   14  A    between atoms: _34  and  _36
REMARK   15  A    between atoms: _36  and  _37
REMARK   16  A    between atoms: _36  and  _38
REMARK   17  A    between atoms: _39  and  _41
REMARK                            x       y       z     vdW  Elec       q    Type
REMARK                         _______ _______ _______ _____ _____    ______ ____
ROOT
ATOM      1  C   UNL     1      -3.233  10.720  28.387  0.00  0.00    +0.163 C 
ENDROOT
BRANCH   1   2
ATOM      2  O   UNL     1      -3.008  12.140  28.380  0.00  0.00    -0.388 OA
ATOM      3  H   UNL     1      -3.825  12.595  28.601  0.00  0.00    +0.210 HD
ENDBRANCH   1   2
BRANCH   1   4
ATOM      4  C   UNL     1      -2.094  10.008  27.666  0.00  0.00    +0.141 C 
BRANCH   4   7
ATOM      5  C   UNL     1      -1.967   7.550  27.448  0.00  0.00    +0.401 C 
ATOM      6  O   UNL     1      -2.255   7.547  26.249  0.00  0.00    -0.226 OA
ATOM      7  N   UNL     1      -1.875   8.654  28.190  0.00  0.00    -0.279 N 
ATOM      8  H   UNL     1      -1.642   8.554  29.168  0.00  0.00    +0.152 HD
BRANCH   5   9
ATOM      9  O   UNL     1      -1.715   6.305  28.105  0.00  0.00    -0.444 OA
BRANCH   9  10
ATOM     10  C   UNL     1      -2.950   5.751  28.567  0.00  0.00    +0.292 C 
BRANCH  10  12
ATOM     11  N   UNL     1      -2.642   6.831  30.781  0.00  0.00    -0.131 NA
ATOM     12  C   UNL     1      -3.455   6.515  29.723  0.00  0.00    +0.120 A 
ATOM     13  C   UNL     1      -4.711   7.022  29.958  0.00  0.00    +0.137 A 
ATOM     14  N   UNL     1      -4.607   7.621  31.179  0.00  0.00    -0.242 N 
ATOM     15  N   UNL     1      -3.357   7.517  31.664  0.00  0.00    -0.065 NA
BRANCH  14  16
ATOM     16  C   UNL     1      -5.599   8.402  31.892  0.00  0.00    +0.241 C 
BRANCH  16  17
ATOM     17  C   UNL     1      -5.622   9.835  31.427  0.00  0.00    +0.241 C 
ATOM     18  O   UNL     1      -6.532  10.232  30.701  0.00  0.00    -0.273 OA
ATOM     19  N   UNL     1      -4.530  10.581  31.817  0.00  0.00    -0.253 N 
ATOM     20  H   UNL     1      -3.716  10.162  32.238  0.00  0.00    +0.158 HD
ATOM     21  C   UNL     1      -4.365  11.928  31.516  0.00  0.00    +0.221 A 
ATOM     22  N   UNL     1      -3.131  12.415  31.717  0.00  0.00    -0.223 NA
ATOM     23  C   UNL     1      -2.934  13.702  31.359  0.00  0.00    +0.116 A 
ATOM     24  C   UNL     1      -3.917  14.512  30.844  0.00  0.00    +0.039 A 
ATOM     25  C   UNL     1      -5.150  13.929  30.724  0.00  0.00    +0.116 A 
ATOM     26  N   UNL     1      -5.390  12.650  31.052  0.00  0.00    -0.223 NA
ENDBRANCH  16  17
ENDBRANCH  14  16
ENDBRANCH  10  12
ENDBRANCH   9  10
ENDBRANCH   5   9
ENDBRANCH   4   7
ENDBRANCH   1   4
BRANCH   1  27
ATOM     27  C   UNL     1      -4.569  10.371  27.709  0.00  0.00    +0.175 C 
BRANCH  27  28
ATOM     28  C   UNL     1      -4.486  10.482  26.179  0.00  0.00    +0.176 C 
ATOM     29  O   UNL     1      -4.719  11.871  25.818  0.00  0.00    -0.332 OA
ATOM     30  C   UNL     1      -4.573  12.188  24.394  0.00  0.00    +0.277 C 
ATOM     31  C   UNL     1      -5.476  11.266  23.539  0.00  0.00    +0.110 C 
ATOM     32  C   UNL     1      -5.287   9.780  23.909  0.00  0.00    +0.143 C 
ATOM     33  C   UNL     1      -5.458   9.564  25.413  0.00  0.00    +0.133 C 
BRANCH  33  34
ATOM     34  N   UNL     1      -5.190   8.161  25.766  0.00  0.00    -0.308 N 
ATOM     35  H   UNL     1      -4.274   7.788  25.555  0.00  0.00    +0.149 HD
ATOM     36  C   UNL     1      -6.076   7.348  26.346  0.00  0.00    +0.210 C 
ATOM     37  C   UNL     1      -7.470   7.939  26.631  0.00  0.00    +0.109 C 
ATOM     38  O   UNL     1      -5.819   6.181  26.644  0.00  0.00    -0.276 OA
ENDBRANCH  33  34
BRANCH  30  39
ATOM     39  C   UNL     1      -3.105  12.031  23.946  0.00  0.00    +0.414 C 
ATOM     40  O   UNL     1      -2.189  12.203  24.750  0.00  0.00    -0.240 OA
ATOM     41  O   UNL     1      -2.836  11.732  22.782  0.00  0.00    -0.240 OA
ENDBRANCH  30  39
BRANCH  30  42
ATOM     42  O   UNL     1      -5.000  13.560  24.194  0.00  0.00    -0.343 OA
ATOM     43  C   UNL     1      -5.718  13.804  22.958  0.00  0.00    +0.198 C 
ENDBRANCH  30  42
BRANCH  32  44
ATOM     44  O   UNL     1      -6.243   8.984  23.208  0.00  0.00    -0.390 OA
ATOM     45  H   UNL     1      -6.861   8.600  23.834  0.00  0.00    +0.210 HD
ENDBRANCH  32  44
ENDBRANCH  27  28
BRANCH  27  46
ATOM     46  O   UNL     1      -5.618  11.222  28.212  0.00  0.00    -0.387 OA
ATOM     47  H   UNL     1      -5.251  11.844  28.844  0.00  0.00    +0.210 HD
ENDBRANCH  27  46
ENDBRANCH   1  27
TORSDOF 15
