REMARK VINA RESULT:    -5.233      2.583      5.213
REMARK INTER + INTRA:         -12.662
REMARK INTER:                 -10.235
REMARK INTRA:                  -2.428
REMARK UNBOUND:                -2.840
REMARK  Name = lig_assembled_77.pdb
REMARK  19 active torsions:
REMARK  status: ('A' for Active; 'I' for Inactive)
REMARK    1  A    between atoms: _2  and  _10
REMARK    2  A    between atoms: _3  and  _17
REMARK    3  A    between atoms: _5  and  _27
REMARK    4  A    between atoms: _7  and  _8
REMARK    5  A    between atoms: _7  and  _27
REMARK    6  A    between atoms: _13  and  _47
REMARK    7  A    between atoms: _14  and  _47
REMARK    8  A    between atoms: _23  and  _43
REMARK    9  A    between atoms: _25  and  _31
REMARK   10  A    between atoms: _26  and  _30
REMARK   11  A    between atoms: _30  and  _31
REMARK   12  A    between atoms: _33  and  _34
REMARK   13  A    between atoms: _35  and  _36
REMARK   14  A    between atoms: _37  and  _39
REMARK   15  A    between atoms: _39  and  _40
REMARK   16  A    between atoms: _39  and  _41
REMARK   17  A    between atoms: _41  and  _42
REMARK   18  A    between atoms: _41  and  _43
REMARK   19  A    between atoms: _44  and  _46
REMARK                            x       y       z     vdW  Elec       q    Type
REMARK                         _______ _______ _______ _____ _____    ______ ____
ROOT
ATOM      1  C   UNL     1      -5.413  10.260  19.936  0.00  0.00    +0.401 C 
ATOM      2  O   UNL     1      -5.288   9.035  19.876  0.00  0.00    -0.226 OA
ATOM      3  N   UNL     1      -4.813  11.027  20.847  0.00  0.00    -0.279 N 
ATOM      4  H   UNL     1      -4.970  12.024  20.809  0.00  0.00    +0.152 HD
ENDROOT
BRANCH   3   5
ATOM      5  C   UNL     1      -3.938  10.503  21.903  0.00  0.00    +0.141 C 
BRANCH   5   6
ATOM      6  C   UNL     1      -2.911  11.536  22.354  0.00  0.00    +0.163 C 
BRANCH   6   7
ATOM      7  O   UNL     1      -2.911  12.656  21.454  0.00  0.00    -0.388 OA
ATOM      8  H   UNL     1      -2.083  13.134  21.537  0.00  0.00    +0.210 HD
ENDBRANCH   6   7
BRANCH   6   9
ATOM      9  C   UNL     1      -3.229  11.985  23.791  0.00  0.00    +0.175 C 
BRANCH   9  10
ATOM     10  C   UNL     1      -4.524  12.807  23.865  0.00  0.00    +0.176 C 
ATOM     11  O   UNL     1      -4.258  14.115  23.288  0.00  0.00    -0.332 OA
ATOM     12  C   UNL     1      -5.416  15.006  23.177  0.00  0.00    +0.277 C 
ATOM     13  C   UNL     1      -6.105  15.173  24.553  0.00  0.00    +0.110 C 
ATOM     14  C   UNL     1      -6.380  13.809  25.221  0.00  0.00    +0.143 C 
ATOM     15  C   UNL     1      -5.109  12.961  25.282  0.00  0.00    +0.133 C 
BRANCH  15  16
ATOM     16  N   UNL     1      -5.402  11.632  25.840  0.00  0.00    -0.308 N 
ATOM     17  H   UNL     1      -6.087  11.061  25.364  0.00  0.00    +0.149 HD
ATOM     18  C   UNL     1      -4.823  11.131  26.934  0.00  0.00    +0.210 C 
ATOM     19  C   UNL     1      -3.803  12.036  27.651  0.00  0.00    +0.109 C 
ATOM     20  O   UNL     1      -5.077  10.008  27.371  0.00  0.00    -0.276 OA
ENDBRANCH  15  16
BRANCH  12  21
ATOM     21  C   UNL     1      -6.432  14.458  22.154  0.00  0.00    +0.414 C 
ATOM     22  O   UNL     1      -6.112  13.550  21.387  0.00  0.00    -0.240 OA
ATOM     23  O   UNL     1      -7.572  14.922  22.096  0.00  0.00    -0.240 OA
ENDBRANCH  12  21
BRANCH  14  24
ATOM     24  O   UNL     1      -6.875  14.012  26.545  0.00  0.00    -0.390 OA
ATOM     25  H   UNL     1      -7.793  14.288  26.506  0.00  0.00    +0.210 HD
ENDBRANCH  14  24
BRANCH  12  26
ATOM     26  O   UNL     1      -4.941  16.307  22.743  0.00  0.00    -0.343 OA
ATOM     27  C   UNL     1      -5.641  17.438  23.320  0.00  0.00    +0.198 C 
ENDBRANCH  12  26
ENDBRANCH   9  10
BRANCH   9  28
ATOM     28  O   UNL     1      -2.128  12.743  24.330  0.00  0.00    -0.387 OA
ATOM     29  H   UNL     1      -1.671  13.196  23.617  0.00  0.00    +0.210 HD
ENDBRANCH   9  28
ENDBRANCH   6   9
ENDBRANCH   5   6
ENDBRANCH   3   5
BRANCH   1  30
ATOM     30  O   UNL     1      -6.244  10.921  18.978  0.00  0.00    -0.444 OA
BRANCH  30  31
ATOM     31  C   UNL     1      -6.230  10.190  17.748  0.00  0.00    +0.292 C 
BRANCH  31  33
ATOM     32  N   UNL     1      -6.563  12.208  16.358  0.00  0.00    -0.131 NA
ATOM     33  C   UNL     1      -5.855  11.073  16.627  0.00  0.00    +0.121 A 
ATOM     34  C   UNL     1      -4.828  10.958  15.719  0.00  0.00    +0.143 A 
ATOM     35  N   UNL     1      -4.943  12.066  14.910  0.00  0.00    -0.220 N 
ATOM     36  N   UNL     1      -6.010  12.800  15.309  0.00  0.00    -0.060 NA
BRANCH  35  37
ATOM     37  C   UNL     1      -4.094  12.490  13.853  0.00  0.00    +0.067 A 
ATOM     38  C   UNL     1      -4.294  13.727  13.221  0.00  0.00    +0.030 A 
ATOM     39  C   UNL     1      -3.527  14.075  12.105  0.00  0.00    +0.029 A 
ATOM     40  C   UNL     1      -2.559  13.189  11.626  0.00  0.00    +0.094 A 
ATOM     41  C   UNL     1      -2.289  11.996  12.303  0.00  0.00    +0.029 A 
ATOM     42  C   UNL     1      -3.065  11.642  13.409  0.00  0.00    +0.030 A 
BRANCH  40  43
ATOM     43  S   UNL     1      -1.631  13.604  10.163  0.00  0.00    +0.025 S 
ATOM     44  O   UNL     1      -1.133  12.346   9.630  0.00  0.00    -0.164 OA
ATOM     45  O   UNL     1      -2.464  14.472   9.353  0.00  0.00    -0.164 OA
BRANCH  43  46
ATOM     46  C   UNL     1      -0.211  14.569  10.635  0.00  0.00    +0.094 A 
ATOM     47  C   UNL     1      -0.048  15.015  11.947  0.00  0.00    +0.029 A 
ATOM     48  C   UNL     1       1.048  15.824  12.269  0.00  0.00    +0.024 A 
ATOM     49  C   UNL     1       2.009  16.155  11.306  0.00  0.00    +0.025 A 
ATOM     50  C   UNL     1       1.814  15.724   9.990  0.00  0.00    +0.024 A 
ATOM     51  C   UNL     1       0.723  14.918   9.655  0.00  0.00    +0.029 A 
BRANCH  49  52
ATOM     52  N   UNL     1       3.000  17.098  11.595  0.00  0.00    -0.358 N 
ATOM     53  H   UNL     1       3.010  17.905  10.981  0.00  0.00    +0.142 HD
ATOM     54  H   UNL     1       3.062  17.353  12.575  0.00  0.00    +0.142 HD
ENDBRANCH  49  52
ENDBRANCH  43  46
ENDBRANCH  40  43
ENDBRANCH  35  37
ENDBRANCH  31  33
ENDBRANCH  30  31
ENDBRANCH   1  30
TORSDOF 17
