REMARK VINA RESULT:    -4.484      5.437     10.541
REMARK INTER + INTRA:         -10.782
REMARK INTER:                  -7.122
REMARK INTRA:                  -3.661
REMARK UNBOUND:                -2.759
REMARK  Name = lig_assembled_38.pdb
REMARK  17 active torsions:
REMARK  status: ('A' for Active; 'I' for Inactive)
REMARK    1  A    between atoms: _2  and  _9
REMARK    2  A    between atoms: _4  and  _19
REMARK    3  A    between atoms: _6  and  _7
REMARK    4  A    between atoms: _6  and  _19
REMARK    5  A    between atoms: _9  and  _10
REMARK    6  A    between atoms: _15  and  _35
REMARK    7  A    between atoms: _17  and  _23
REMARK    8  A    between atoms: _18  and  _22
REMARK    9  A    between atoms: _22  and  _23
REMARK   10  A    between atoms: _25  and  _26
REMARK   11  A    between atoms: _27  and  _28
REMARK   12  A    between atoms: _29  and  _31
REMARK   13  A    between atoms: _31  and  _32
REMARK   14  A    between atoms: _31  and  _33
REMARK   15  A    between atoms: _33  and  _34
REMARK   16  A    between atoms: _33  and  _35
REMARK   17  A    between atoms: _36  and  _38
REMARK                            x       y       z     vdW  Elec       q    Type
REMARK                         _______ _______ _______ _____ _____    ______ ____
ROOT
ATOM      1  C   UNL     1      -2.980   9.443  28.650  0.00  0.00    +0.163 C 
ENDROOT
BRANCH   1   2
ATOM      2  O   UNL     1      -3.477   8.819  27.455  0.00  0.00    -0.388 OA
ATOM      3  H   UNL     1      -3.372   7.867  27.523  0.00  0.00    +0.210 HD
ENDBRANCH   1   2
BRANCH   1   4
ATOM      4  C   UNL     1      -2.968   8.438  29.797  0.00  0.00    +0.141 C 
BRANCH   4   7
ATOM      5  C   UNL     1      -3.300   8.604  32.240  0.00  0.00    +0.401 C 
ATOM      6  O   UNL     1      -3.940   7.553  32.320  0.00  0.00    -0.226 OA
ATOM      7  N   UNL     1      -2.813   9.096  31.100  0.00  0.00    -0.279 N 
ATOM      8  H   UNL     1      -2.309   9.971  31.135  0.00  0.00    +0.152 HD
BRANCH   5   9
ATOM      9  O   UNL     1      -3.056   9.360  33.429  0.00  0.00    -0.444 OA
BRANCH   9  10
ATOM     10  C   UNL     1      -3.988  10.442  33.507  0.00  0.00    +0.292 C 
BRANCH  10  12
ATOM     11  N   UNL     1      -2.379  11.945  32.371  0.00  0.00    -0.131 NA
ATOM     12  C   UNL     1      -3.287  11.735  33.375  0.00  0.00    +0.120 A 
ATOM     13  C   UNL     1      -3.409  12.888  34.119  0.00  0.00    +0.137 A 
ATOM     14  N   UNL     1      -2.593  13.779  33.484  0.00  0.00    -0.247 N 
ATOM     15  N   UNL     1      -1.965  13.202  32.442  0.00  0.00    -0.065 NA
BRANCH  14  16
ATOM     16  C   UNL     1      -2.544  15.219  33.662  0.00  0.00    +0.180 C 
BRANCH  16  17
ATOM     17  C   UNL     1      -3.790  15.926  33.187  0.00  0.00    -0.025 A 
ATOM     18  C   UNL     1      -4.873  16.138  34.054  0.00  0.00    +0.005 A 
ATOM     19  C   UNL     1      -5.987  16.873  33.635  0.00  0.00    +0.001 A 
ATOM     20  C   UNL     1      -6.031  17.403  32.346  0.00  0.00    +0.015 A 
ATOM     21  C   UNL     1      -4.965  17.188  31.478  0.00  0.00    +0.018 A 
ATOM     22 BR   UNL     1      -5.017  17.914  29.733  0.00  0.00    -0.050 Br
ATOM     23  C   UNL     1      -3.849  16.456  31.888  0.00  0.00    +0.020 A 
ENDBRANCH  16  17
ENDBRANCH  14  16
ENDBRANCH  10  12
ENDBRANCH   9  10
ENDBRANCH   5   9
ENDBRANCH   4   7
ENDBRANCH   1   4
BRANCH   1  24
ATOM     24  C   UNL     1      -3.843  10.656  29.038  0.00  0.00    +0.175 C 
BRANCH  24  25
ATOM     25  C   UNL     1      -4.580  11.251  27.829  0.00  0.00    +0.176 C 
ATOM     26  O   UNL     1      -3.581  11.697  26.872  0.00  0.00    -0.332 OA
ATOM     27  C   UNL     1      -4.103  12.201  25.598  0.00  0.00    +0.277 C 
ATOM     28  C   UNL     1      -5.133  13.332  25.846  0.00  0.00    +0.110 C 
ATOM     29  C   UNL     1      -6.198  12.915  26.881  0.00  0.00    +0.143 C 
ATOM     30  C   UNL     1      -5.544  12.403  28.166  0.00  0.00    +0.133 C 
BRANCH  30  31
ATOM     31  N   UNL     1      -6.567  11.929  29.111  0.00  0.00    -0.308 N 
ATOM     32  H   UNL     1      -7.184  11.189  28.805  0.00  0.00    +0.149 HD
ATOM     33  C   UNL     1      -6.733  12.411  30.345  0.00  0.00    +0.210 C 
ATOM     34  C   UNL     1      -5.794  13.555  30.771  0.00  0.00    +0.109 C 
ATOM     35  O   UNL     1      -7.589  11.983  31.121  0.00  0.00    -0.276 OA
ENDBRANCH  30  31
BRANCH  27  36
ATOM     36  C   UNL     1      -4.768  11.066  24.792  0.00  0.00    +0.414 C 
ATOM     37  O   UNL     1      -5.845  11.254  24.228  0.00  0.00    -0.240 OA
ATOM     38  O   UNL     1      -4.226   9.963  24.704  0.00  0.00    -0.240 OA
ENDBRANCH  27  36
BRANCH  27  39
ATOM     39  O   UNL     1      -2.993  12.751  24.844  0.00  0.00    -0.343 OA
ATOM     40  C   UNL     1      -3.369  13.513  23.669  0.00  0.00    +0.198 C 
ENDBRANCH  27  39
BRANCH  29  41
ATOM     41  O   UNL     1      -7.032  14.032  27.191  0.00  0.00    -0.390 OA
ATOM     42  H   UNL     1      -7.953  13.761  27.166  0.00  0.00    +0.210 HD
ENDBRANCH  29  41
ENDBRANCH  24  25
BRANCH  24  43
ATOM     43  O   UNL     1      -3.029  11.664  29.669  0.00  0.00    -0.387 OA
ATOM     44  H   UNL     1      -3.250  11.718  30.602  0.00  0.00    +0.210 HD
ENDBRANCH  24  43
ENDBRANCH   1  24
TORSDOF 15
