REMARK VINA RESULT:    -5.000      5.432      7.646
REMARK INTER + INTRA:         -11.706
REMARK INTER:                  -8.293
REMARK INTRA:                  -3.413
REMARK UNBOUND:                -2.759
REMARK  Name = lig_assembled_38.pdb
REMARK  17 active torsions:
REMARK  status: ('A' for Active; 'I' for Inactive)
REMARK    1  A    between atoms: _2  and  _9
REMARK    2  A    between atoms: _4  and  _19
REMARK    3  A    between atoms: _6  and  _7
REMARK    4  A    between atoms: _6  and  _19
REMARK    5  A    between atoms: _9  and  _10
REMARK    6  A    between atoms: _15  and  _35
REMARK    7  A    between atoms: _17  and  _23
REMARK    8  A    between atoms: _18  and  _22
REMARK    9  A    between atoms: _22  and  _23
REMARK   10  A    between atoms: _25  and  _26
REMARK   11  A    between atoms: _27  and  _28
REMARK   12  A    between atoms: _29  and  _31
REMARK   13  A    between atoms: _31  and  _32
REMARK   14  A    between atoms: _31  and  _33
REMARK   15  A    between atoms: _33  and  _34
REMARK   16  A    between atoms: _33  and  _35
REMARK   17  A    between atoms: _36  and  _38
REMARK                            x       y       z     vdW  Elec       q    Type
REMARK                         _______ _______ _______ _____ _____    ______ ____
ROOT
ATOM      1  C   UNL     1      -2.746   9.379  27.700  0.00  0.00    +0.163 C 
ENDROOT
BRANCH   1   2
ATOM      2  O   UNL     1      -2.217   8.064  27.938  0.00  0.00    -0.388 OA
ATOM      3  H   UNL     1      -2.874   7.406  27.698  0.00  0.00    +0.210 HD
ENDBRANCH   1   2
BRANCH   1   4
ATOM      4  C   UNL     1      -1.880  10.113  26.682  0.00  0.00    +0.141 C 
BRANCH   4   7
ATOM      5  C   UNL     1      -2.734  11.796  25.087  0.00  0.00    +0.401 C 
ATOM      6  O   UNL     1      -2.560  11.083  24.096  0.00  0.00    -0.226 OA
ATOM      7  N   UNL     1      -2.439  11.426  26.333  0.00  0.00    -0.279 N 
ATOM      8  H   UNL     1      -2.609  12.085  27.080  0.00  0.00    +0.152 HD
BRANCH   5   9
ATOM      9  O   UNL     1      -3.282  13.106  24.912  0.00  0.00    -0.444 OA
BRANCH   9  10
ATOM     10  C   UNL     1      -4.666  13.003  24.570  0.00  0.00    +0.292 C 
BRANCH  10  12
ATOM     11  N   UNL     1      -5.541  12.407  26.810  0.00  0.00    -0.131 NA
ATOM     12  C   UNL     1      -5.510  13.276  25.751  0.00  0.00    +0.120 A 
ATOM     13  C   UNL     1      -6.321  14.353  26.029  0.00  0.00    +0.137 A 
ATOM     14  N   UNL     1      -6.773  14.110  27.294  0.00  0.00    -0.247 N 
ATOM     15  N   UNL     1      -6.312  12.931  27.753  0.00  0.00    -0.065 NA
BRANCH  14  16
ATOM     16  C   UNL     1      -7.433  15.038  28.193  0.00  0.00    +0.180 C 
BRANCH  16  17
ATOM     17  C   UNL     1      -6.509  16.092  28.754  0.00  0.00    -0.025 A 
ATOM     18  C   UNL     1      -6.413  17.358  28.156  0.00  0.00    +0.005 A 
ATOM     19  C   UNL     1      -5.624  18.359  28.734  0.00  0.00    +0.001 A 
ATOM     20  C   UNL     1      -4.924  18.106  29.912  0.00  0.00    +0.015 A 
ATOM     21  C   UNL     1      -5.007  16.850  30.504  0.00  0.00    +0.018 A 
ATOM     22 BR   UNL     1      -4.066  16.506  32.108  0.00  0.00    -0.050 Br
ATOM     23  C   UNL     1      -5.792  15.845  29.935  0.00  0.00    +0.020 A 
ENDBRANCH  16  17
ENDBRANCH  14  16
ENDBRANCH  10  12
ENDBRANCH   9  10
ENDBRANCH   5   9
ENDBRANCH   4   7
ENDBRANCH   1   4
BRANCH   1  24
ATOM     24  C   UNL     1      -2.807  10.192  29.005  0.00  0.00    +0.175 C 
BRANCH  24  25
ATOM     25  C   UNL     1      -2.943   9.291  30.241  0.00  0.00    +0.176 C 
ATOM     26  O   UNL     1      -3.936   8.271  29.944  0.00  0.00    -0.332 OA
ATOM     27  C   UNL     1      -4.124   7.249  30.978  0.00  0.00    +0.277 C 
ATOM     28  C   UNL     1      -4.446   7.911  32.340  0.00  0.00    +0.110 C 
ATOM     29  C   UNL     1      -3.435   9.026  32.685  0.00  0.00    +0.143 C 
ATOM     30  C   UNL     1      -3.316  10.031  31.539  0.00  0.00    +0.133 C 
BRANCH  30  31
ATOM     31  N   UNL     1      -2.287  11.039  31.843  0.00  0.00    -0.308 N 
ATOM     32  H   UNL     1      -1.323  10.737  31.864  0.00  0.00    +0.149 HD
ATOM     33  C   UNL     1      -2.544  12.325  32.093  0.00  0.00    +0.210 C 
ATOM     34  C   UNL     1      -4.026  12.748  32.080  0.00  0.00    +0.109 C 
ATOM     35  O   UNL     1      -1.661  13.150  32.330  0.00  0.00    -0.276 OA
ENDBRANCH  30  31
BRANCH  27  36
ATOM     36  C   UNL     1      -2.862   6.372  31.117  0.00  0.00    +0.414 C 
ATOM     37  O   UNL     1      -2.028   6.339  30.213  0.00  0.00    -0.240 OA
ATOM     38  O   UNL     1      -2.679   5.698  32.131  0.00  0.00    -0.240 OA
ENDBRANCH  27  36
BRANCH  27  39
ATOM     39  O   UNL     1      -5.253   6.423  30.593  0.00  0.00    -0.343 OA
ATOM     40  C   UNL     1      -5.560   6.428  29.176  0.00  0.00    +0.198 C 
ENDBRANCH  27  39
BRANCH  29  41
ATOM     41  O   UNL     1      -3.855   9.707  33.868  0.00  0.00    -0.390 OA
ATOM     42  H   UNL     1      -3.247  10.426  34.056  0.00  0.00    +0.210 HD
ENDBRANCH  29  41
ENDBRANCH  24  25
BRANCH  24  43
ATOM     43  O   UNL     1      -3.898  11.133  28.953  0.00  0.00    -0.387 OA
ATOM     44  H   UNL     1      -3.603  11.942  28.528  0.00  0.00    +0.210 HD
ENDBRANCH  24  43
ENDBRANCH   1  24
TORSDOF 15
