REMARK VINA RESULT:    -4.715      3.545      5.068
REMARK INTER + INTRA:         -11.535
REMARK INTER:                  -8.938
REMARK INTRA:                  -2.596
REMARK UNBOUND:                -3.373
REMARK  Name = lig_assembled_27.pdb
REMARK  16 active torsions:
REMARK  status: ('A' for Active; 'I' for Inactive)
REMARK    1  A    between atoms: _2  and  _9
REMARK    2  A    between atoms: _4  and  _18
REMARK    3  A    between atoms: _6  and  _7
REMARK    4  A    between atoms: _6  and  _18
REMARK    5  A    between atoms: _14  and  _34
REMARK    6  A    between atoms: _16  and  _22
REMARK    7  A    between atoms: _17  and  _21
REMARK    8  A    between atoms: _21  and  _22
REMARK    9  A    between atoms: _24  and  _25
REMARK   10  A    between atoms: _26  and  _27
REMARK   11  A    between atoms: _28  and  _30
REMARK   12  A    between atoms: _30  and  _31
REMARK   13  A    between atoms: _30  and  _32
REMARK   14  A    between atoms: _32  and  _33
REMARK   15  A    between atoms: _32  and  _34
REMARK   16  A    between atoms: _35  and  _37
REMARK                            x       y       z     vdW  Elec       q    Type
REMARK                         _______ _______ _______ _____ _____    ______ ____
ROOT
ATOM      1  C   UNL     1      -2.990  11.895  24.204  0.00  0.00    +0.163 C 
ENDROOT
BRANCH   1   2
ATOM      2  O   UNL     1      -2.031  11.855  25.273  0.00  0.00    -0.388 OA
ATOM      3  H   UNL     1      -1.155  12.039  24.926  0.00  0.00    +0.210 HD
ENDBRANCH   1   2
BRANCH   1   4
ATOM      4  C   UNL     1      -3.943  13.069  24.402  0.00  0.00    +0.141 C 
BRANCH   4   7
ATOM      5  C   UNL     1      -5.449  13.817  22.591  0.00  0.00    +0.401 C 
ATOM      6  O   UNL     1      -4.773  14.810  22.311  0.00  0.00    -0.226 OA
ATOM      7  N   UNL     1      -5.138  12.952  23.557  0.00  0.00    -0.279 N 
ATOM      8  H   UNL     1      -5.761  12.173  23.718  0.00  0.00    +0.152 HD
BRANCH   5   9
ATOM      9  O   UNL     1      -6.644  13.559  21.849  0.00  0.00    -0.444 OA
BRANCH   9  10
ATOM     10  C   UNL     1      -6.806  12.148  21.679  0.00  0.00    +0.292 C 
BRANCH  10  12
ATOM     11  N   UNL     1      -4.995  10.707  20.802  0.00  0.00    -0.131 NA
ATOM     12  C   UNL     1      -5.946  11.662  20.584  0.00  0.00    +0.121 A 
ATOM     13  C   UNL     1      -5.925  12.022  19.257  0.00  0.00    +0.143 A 
ATOM     14  N   UNL     1      -4.938  11.247  18.692  0.00  0.00    -0.220 N 
ATOM     15  N   UNL     1      -4.386  10.462  19.649  0.00  0.00    -0.060 NA
BRANCH  14  16
ATOM     16  C   UNL     1      -4.502  11.207  17.342  0.00  0.00    +0.068 A 
ATOM     17  C   UNL     1      -4.253   9.969  16.728  0.00  0.00    +0.028 A 
ATOM     18  C   UNL     1      -3.820   9.917  15.401  0.00  0.00    +0.003 A 
ATOM     19  C   UNL     1      -3.633  11.095  14.680  0.00  0.00    +0.020 A 
ATOM     20  C   UNL     1      -3.882  12.323  15.287  0.00  0.00    +0.043 A 
ATOM     21 CL   UNL     1      -3.652  13.778  14.397  0.00  0.00    -0.083 Cl
ATOM     22  C   UNL     1      -4.316  12.389  16.613  0.00  0.00    +0.047 A 
ENDBRANCH  14  16
ENDBRANCH  10  12
ENDBRANCH   9  10
ENDBRANCH   5   9
ENDBRANCH   4   7
ENDBRANCH   1   4
BRANCH   1  23
ATOM     23  C   UNL     1      -3.795  10.586  24.138  0.00  0.00    +0.175 C 
BRANCH  23  24
ATOM     24  C   UNL     1      -3.803   9.843  25.482  0.00  0.00    +0.176 C 
ATOM     25  O   UNL     1      -2.849   8.750  25.395  0.00  0.00    -0.332 OA
ATOM     26  C   UNL     1      -2.642   7.989  26.631  0.00  0.00    +0.277 C 
ATOM     27  C   UNL     1      -3.993   7.462  27.174  0.00  0.00    +0.110 C 
ATOM     28  C   UNL     1      -5.051   8.583  27.254  0.00  0.00    +0.143 C 
ATOM     29  C   UNL     1      -5.182   9.311  25.916  0.00  0.00    +0.133 C 
BRANCH  29  30
ATOM     30  N   UNL     1      -6.128  10.432  26.029  0.00  0.00    -0.308 N 
ATOM     31  H   UNL     1      -5.940  11.139  26.726  0.00  0.00    +0.149 HD
ATOM     32  C   UNL     1      -7.219  10.575  25.272  0.00  0.00    +0.210 C 
ATOM     33  C   UNL     1      -7.492   9.467  24.238  0.00  0.00    +0.109 C 
ATOM     34  O   UNL     1      -7.987  11.532  25.380  0.00  0.00    -0.276 OA
ENDBRANCH  29  30
BRANCH  26  35
ATOM     35  C   UNL     1      -1.961   8.862  27.704  0.00  0.00    +0.414 C 
ATOM     36  O   UNL     1      -1.172   9.748  27.375  0.00  0.00    -0.240 OA
ATOM     37  O   UNL     1      -2.200   8.683  28.899  0.00  0.00    -0.240 OA
ENDBRANCH  26  35
BRANCH  28  38
ATOM     38  O   UNL     1      -6.316   8.026  27.613  0.00  0.00    -0.390 OA
ATOM     39  H   UNL     1      -6.673   8.501  28.367  0.00  0.00    +0.210 HD
ENDBRANCH  28  38
BRANCH  26  40
ATOM     40  O   UNL     1      -1.799   6.850  26.321  0.00  0.00    -0.343 OA
ATOM     41  C   UNL     1      -2.441   5.804  25.548  0.00  0.00    +0.198 C 
ENDBRANCH  26  40
ENDBRANCH  23  24
BRANCH  23  42
ATOM     42  O   UNL     1      -3.270   9.732  23.102  0.00  0.00    -0.387 OA
ATOM     43  H   UNL     1      -2.491   9.275  23.428  0.00  0.00    +0.210 HD
ENDBRANCH  23  42
ENDBRANCH   1  23
TORSDOF 14
