REMARK VINA RESULT:    -4.786      2.063      4.496
REMARK INTER + INTRA:         -13.309
REMARK INTER:                  -8.699
REMARK INTRA:                  -4.610
REMARK UNBOUND:                -3.487
REMARK  Name = lig_assembled_90.pdb
REMARK  22 active torsions:
REMARK  status: ('A' for Active; 'I' for Inactive)
REMARK    1  A    between atoms: _2  and  _13
REMARK    2  A    between atoms: _3  and  _15
REMARK    3  A    between atoms: _4  and  _17
REMARK    4  A    between atoms: _8  and  _28
REMARK    5  A    between atoms: _10  and  _11
REMARK    6  A    between atoms: _10  and  _28
REMARK    7  A    between atoms: _13  and  _14
REMARK    8  A    between atoms: _15  and  _16
REMARK    9  A    between atoms: _16  and  _17
REMARK   10  A    between atoms: _16  and  _22
REMARK   11  A    between atoms: _24  and  _44
REMARK   12  A    between atoms: _26  and  _32
REMARK   13  A    between atoms: _27  and  _31
REMARK   14  A    between atoms: _31  and  _32
REMARK   15  A    between atoms: _34  and  _35
REMARK   16  A    between atoms: _36  and  _37
REMARK   17  A    between atoms: _38  and  _40
REMARK   18  A    between atoms: _40  and  _41
REMARK   19  A    between atoms: _40  and  _42
REMARK   20  A    between atoms: _42  and  _43
REMARK   21  A    between atoms: _42  and  _44
REMARK   22  A    between atoms: _45  and  _47
REMARK                            x       y       z     vdW  Elec       q    Type
REMARK                         _______ _______ _______ _____ _____    ______ ____
ROOT
ATOM      1  C   UNL     1      -2.516   8.231  27.359  0.00  0.00    +0.401 C 
ATOM      2  O   UNL     1      -1.958   7.527  26.515  0.00  0.00    -0.226 OA
ATOM      3  N   UNL     1      -2.529   9.565  27.327  0.00  0.00    -0.279 N 
ATOM      4  H   UNL     1      -3.022  10.054  28.061  0.00  0.00    +0.152 HD
ENDROOT
BRANCH   3   5
ATOM      5  C   UNL     1      -1.868  10.361  26.286  0.00  0.00    +0.141 C 
BRANCH   5   6
ATOM      6  C   UNL     1      -2.698  11.577  25.888  0.00  0.00    +0.163 C 
BRANCH   6   7
ATOM      7  O   UNL     1      -2.186  12.143  24.670  0.00  0.00    -0.388 OA
ATOM      8  H   UNL     1      -2.512  11.639  23.920  0.00  0.00    +0.210 HD
ENDBRANCH   6   7
BRANCH   6   9
ATOM      9  C   UNL     1      -4.171  11.164  25.726  0.00  0.00    +0.175 C 
BRANCH   9  10
ATOM     10  C   UNL     1      -4.514  10.805  24.273  0.00  0.00    +0.176 C 
ATOM     11  O   UNL     1      -4.869  12.034  23.581  0.00  0.00    -0.332 OA
ATOM     12  C   UNL     1      -5.127  11.901  22.144  0.00  0.00    +0.277 C 
ATOM     13  C   UNL     1      -6.210  10.825  21.887  0.00  0.00    +0.110 C 
ATOM     14  C   UNL     1      -5.892   9.509  22.628  0.00  0.00    +0.143 C 
ATOM     15  C   UNL     1      -5.638   9.764  24.114  0.00  0.00    +0.133 C 
BRANCH  15  16
ATOM     16  N   UNL     1      -5.251   8.517  24.792  0.00  0.00    -0.308 N 
ATOM     17  H   UNL     1      -4.382   8.081  24.518  0.00  0.00    +0.149 HD
ATOM     18  C   UNL     1      -5.974   7.923  25.746  0.00  0.00    +0.210 C 
ATOM     19  C   UNL     1      -7.307   8.598  26.122  0.00  0.00    +0.109 C 
ATOM     20  O   UNL     1      -5.619   6.886  26.307  0.00  0.00    -0.276 OA
ENDBRANCH  15  16
BRANCH  12  21
ATOM     21  C   UNL     1      -3.836  11.525  21.389  0.00  0.00    +0.414 C 
ATOM     22  O   UNL     1      -3.890  10.825  20.378  0.00  0.00    -0.240 OA
ATOM     23  O   UNL     1      -2.740  11.920  21.789  0.00  0.00    -0.240 OA
ENDBRANCH  12  21
BRANCH  14  24
ATOM     24  O   UNL     1      -6.986   8.601  22.487  0.00  0.00    -0.390 OA
ATOM     25  H   UNL     1      -7.134   8.146  23.319  0.00  0.00    +0.210 HD
ENDBRANCH  14  24
BRANCH  12  26
ATOM     26  O   UNL     1      -5.624  13.175  21.658  0.00  0.00    -0.343 OA
ATOM     27  C   UNL     1      -5.284  14.319  22.481  0.00  0.00    +0.198 C 
ENDBRANCH  12  26
ENDBRANCH   9  10
BRANCH   9  28
ATOM     28  O   UNL     1      -5.036  12.216  26.196  0.00  0.00    -0.387 OA
ATOM     29  H   UNL     1      -4.543  13.038  26.247  0.00  0.00    +0.210 HD
ENDBRANCH   9  28
ENDBRANCH   6   9
ENDBRANCH   5   6
ENDBRANCH   3   5
BRANCH   1  30
ATOM     30  O   UNL     1      -3.200   7.602  28.446  0.00  0.00    -0.444 OA
BRANCH  30  31
ATOM     31  C   UNL     1      -2.279   7.360  29.514  0.00  0.00    +0.292 C 
BRANCH  31  33
ATOM     32  N   UNL     1      -2.908   6.621  31.796  0.00  0.00    -0.131 NA
ATOM     33  C   UNL     1      -2.933   7.581  30.818  0.00  0.00    +0.120 A 
ATOM     34  C   UNL     1      -3.632   8.673  31.280  0.00  0.00    +0.137 A 
ATOM     35  N   UNL     1      -3.986   8.327  32.549  0.00  0.00    -0.242 N 
ATOM     36  N   UNL     1      -3.566   7.085  32.851  0.00  0.00    -0.065 NA
BRANCH  35  37
ATOM     37  C   UNL     1      -4.802   9.064  33.482  0.00  0.00    +0.240 C 
BRANCH  37  38
ATOM     38  C   UNL     1      -4.922  10.517  33.081  0.00  0.00    +0.235 C 
ATOM     39  O   UNL     1      -5.893  10.958  32.468  0.00  0.00    -0.274 OA
ATOM     40  N   UNL     1      -3.887  11.331  33.502  0.00  0.00    -0.311 N 
ATOM     41  H   UNL     1      -3.000  10.902  33.752  0.00  0.00    +0.149 HD
BRANCH  40  42
ATOM     42  C   UNL     1      -3.843  12.733  33.107  0.00  0.00    +0.137 C 
BRANCH  42  43
ATOM     43  C   UNL     1      -2.503  13.081  32.443  0.00  0.00    +0.151 C 
BRANCH  43  44
ATOM     44  O   UNL     1      -1.797  11.864  32.170  0.00  0.00    -0.388 OA
ATOM     45  H   UNL     1      -2.446  11.158  31.975  0.00  0.00    +0.210 HD
ENDBRANCH  43  44
BRANCH  43  46
ATOM     46  C   UNL     1      -2.699  13.909  31.168  0.00  0.00    +0.162 C 
BRANCH  46  47
ATOM     47  N   UNL     1      -4.085  13.920  30.720  0.00  0.00    -0.269 N 
ATOM     48  C   UNL     1      -4.967  14.931  31.033  0.00  0.00    +0.113 A 
ATOM     49  C   UNL     1      -6.169  14.565  30.475  0.00  0.00    +0.137 A 
ATOM     50  N   UNL     1      -6.055  13.360  29.831  0.00  0.00    -0.172 NA
ATOM     51  C   UNL     1      -4.790  13.000  29.983  0.00  0.00    +0.450 A 
ATOM     52  N   UNL     1      -4.265  11.774  29.431  0.00  0.00    +0.120 N 
ATOM     53  O   UNL     1      -3.047  11.574  29.531  0.00  0.00    +0.045 OA
ATOM     54  O   UNL     1      -5.072  10.999  28.904  0.00  0.00    -0.573 OA
ENDBRANCH  46  47
ENDBRANCH  43  46
ENDBRANCH  42  43
ENDBRANCH  40  42
ENDBRANCH  37  38
ENDBRANCH  35  37
ENDBRANCH  31  33
ENDBRANCH  30  31
ENDBRANCH   1  30
TORSDOF 20
