REMARK VINA RESULT:    -5.230      2.617      7.730
REMARK INTER + INTRA:         -12.226
REMARK INTER:                  -7.525
REMARK INTRA:                  -4.700
REMARK UNBOUND:                -2.869
REMARK  Name = lig_assembled_71.pdb
REMARK  17 active torsions:
REMARK  status: ('A' for Active; 'I' for Inactive)
REMARK    1  A    between atoms: _2  and  _12
REMARK    2  A    between atoms: _7  and  _22
REMARK    3  A    between atoms: _9  and  _10
REMARK    4  A    between atoms: _9  and  _22
REMARK    5  A    between atoms: _12  and  _13
REMARK    6  A    between atoms: _18  and  _38
REMARK    7  A    between atoms: _20  and  _26
REMARK    8  A    between atoms: _21  and  _25
REMARK    9  A    between atoms: _25  and  _26
REMARK   10  A    between atoms: _28  and  _29
REMARK   11  A    between atoms: _30  and  _31
REMARK   12  A    between atoms: _32  and  _34
REMARK   13  A    between atoms: _34  and  _35
REMARK   14  A    between atoms: _34  and  _36
REMARK   15  A    between atoms: _36  and  _37
REMARK   16  A    between atoms: _36  and  _38
REMARK   17  A    between atoms: _39  and  _41
REMARK                            x       y       z     vdW  Elec       q    Type
REMARK                         _______ _______ _______ _____ _____    ______ ____
ROOT
ATOM      1  C   UNL     1      -6.162  11.703  25.218  0.00  0.00    +0.163 C 
ENDROOT
BRANCH   1   2
ATOM      2  O   UNL     1      -5.373  10.790  24.436  0.00  0.00    -0.388 OA
ATOM      3  H   UNL     1      -4.942  10.160  25.018  0.00  0.00    +0.210 HD
ENDBRANCH   1   2
BRANCH   1   4
ATOM      4  C   UNL     1      -5.620  13.121  25.069  0.00  0.00    +0.141 C 
BRANCH   4   7
ATOM      5  C   UNL     1      -4.252  14.045  23.231  0.00  0.00    +0.401 C 
ATOM      6  O   UNL     1      -5.078  14.908  22.924  0.00  0.00    -0.226 OA
ATOM      7  N   UNL     1      -4.426  13.164  24.216  0.00  0.00    -0.279 N 
ATOM      8  H   UNL     1      -3.695  12.487  24.386  0.00  0.00    +0.152 HD
BRANCH   5   9
ATOM      9  O   UNL     1      -3.028  13.963  22.496  0.00  0.00    -0.444 OA
BRANCH   9  10
ATOM     10  C   UNL     1      -3.295  13.487  21.174  0.00  0.00    +0.292 C 
BRANCH  10  12
ATOM     11  N   UNL     1      -3.063  11.147  21.974  0.00  0.00    -0.131 NA
ATOM     12  C   UNL     1      -3.726  12.076  21.215  0.00  0.00    +0.120 A 
ATOM     13  C   UNL     1      -4.775  11.462  20.573  0.00  0.00    +0.137 A 
ATOM     14  N   UNL     1      -4.691  10.158  20.966  0.00  0.00    -0.242 N 
ATOM     15  N   UNL     1      -3.668   9.976  21.821  0.00  0.00    -0.065 NA
BRANCH  14  16
ATOM     16  C   UNL     1      -5.595   9.064  20.674  0.00  0.00    +0.241 C 
BRANCH  16  17
ATOM     17  C   UNL     1      -5.464   7.948  21.677  0.00  0.00    +0.241 C 
ATOM     18  O   UNL     1      -5.060   6.843  21.320  0.00  0.00    -0.273 OA
ATOM     19  N   UNL     1      -5.900   8.265  22.946  0.00  0.00    -0.253 N 
ATOM     20  H   UNL     1      -6.410   9.112  23.144  0.00  0.00    +0.158 HD
ATOM     21  C   UNL     1      -5.846   7.390  24.026  0.00  0.00    +0.221 A 
ATOM     22  N   UNL     1      -6.569   7.752  25.096  0.00  0.00    -0.223 NA
ATOM     23  C   UNL     1      -6.589   6.878  26.125  0.00  0.00    +0.116 A 
ATOM     24  C   UNL     1      -5.899   5.689  26.131  0.00  0.00    +0.039 A 
ATOM     25  C   UNL     1      -5.156   5.439  25.008  0.00  0.00    +0.116 A 
ATOM     26  N   UNL     1      -5.119   6.271  23.956  0.00  0.00    -0.223 NA
ENDBRANCH  16  17
ENDBRANCH  14  16
ENDBRANCH  10  12
ENDBRANCH   9  10
ENDBRANCH   5   9
ENDBRANCH   4   7
ENDBRANCH   1   4
BRANCH   1  27
ATOM     27  C   UNL     1      -6.155  11.303  26.703  0.00  0.00    +0.175 C 
BRANCH  27  28
ATOM     28  C   UNL     1      -4.747  10.938  27.197  0.00  0.00    +0.176 C 
ATOM     29  O   UNL     1      -4.452   9.587  26.745  0.00  0.00    -0.332 OA
ATOM     30  C   UNL     1      -3.099   9.104  27.036  0.00  0.00    +0.277 C 
ATOM     31  C   UNL     1      -2.793   9.228  28.548  0.00  0.00    +0.110 C 
ATOM     32  C   UNL     1      -3.122  10.638  29.082  0.00  0.00    +0.143 C 
ATOM     33  C   UNL     1      -4.552  11.042  28.721  0.00  0.00    +0.133 C 
BRANCH  33  34
ATOM     34  N   UNL     1      -4.824  12.420  29.158  0.00  0.00    -0.308 N 
ATOM     35  H   UNL     1      -4.269  13.161  28.755  0.00  0.00    +0.149 HD
ATOM     36  C   UNL     1      -5.758  12.755  30.053  0.00  0.00    +0.210 C 
ATOM     37  C   UNL     1      -6.570  11.600  30.668  0.00  0.00    +0.109 C 
ATOM     38  O   UNL     1      -5.974  13.920  30.389  0.00  0.00    -0.276 OA
ENDBRANCH  33  34
BRANCH  30  39
ATOM     39  C   UNL     1      -2.049   9.898  26.230  0.00  0.00    +0.414 C 
ATOM     40  O   UNL     1      -2.396  10.593  25.276  0.00  0.00    -0.240 OA
ATOM     41  O   UNL     1      -0.857   9.844  26.535  0.00  0.00    -0.240 OA
ENDBRANCH  30  39
BRANCH  30  42
ATOM     42  O   UNL     1      -3.035   7.701  26.670  0.00  0.00    -0.343 OA
ATOM     43  C   UNL     1      -2.695   6.800  27.754  0.00  0.00    +0.198 C 
ENDBRANCH  30  42
BRANCH  32  44
ATOM     44  O   UNL     1      -2.970  10.664  30.501  0.00  0.00    -0.390 OA
ATOM     45  H   UNL     1      -2.049  10.510  30.728  0.00  0.00    +0.210 HD
ENDBRANCH  32  44
ENDBRANCH  27  28
BRANCH  27  46
ATOM     46  O   UNL     1      -7.061  10.204  26.926  0.00  0.00    -0.387 OA
ATOM     47  H   UNL     1      -6.838   9.768  27.752  0.00  0.00    +0.210 HD
ENDBRANCH  27  46
ENDBRANCH   1  27
TORSDOF 15
