REMARK VINA RESULT:    -4.646      2.468      6.839
REMARK INTER + INTRA:         -11.019
REMARK INTER:                  -6.888
REMARK INTRA:                  -4.131
REMARK UNBOUND:                -2.299
REMARK  Name = lig_assembled_32.pdb
REMARK  19 active torsions:
REMARK  status: ('A' for Active; 'I' for Inactive)
REMARK    1  A    between atoms: _2  and  _9
REMARK    2  A    between atoms: _4  and  _17
REMARK    3  A    between atoms: _5  and  _10
REMARK    4  A    between atoms: _5  and  _11
REMARK    5  A    between atoms: _6  and  _7
REMARK    6  A    between atoms: _6  and  _17
REMARK    7  A    between atoms: _9  and  _10
REMARK    8  A    between atoms: _13  and  _33
REMARK    9  A    between atoms: _15  and  _21
REMARK   10  A    between atoms: _16  and  _20
REMARK   11  A    between atoms: _20  and  _21
REMARK   12  A    between atoms: _23  and  _24
REMARK   13  A    between atoms: _25  and  _26
REMARK   14  A    between atoms: _27  and  _29
REMARK   15  A    between atoms: _29  and  _30
REMARK   16  A    between atoms: _29  and  _31
REMARK   17  A    between atoms: _31  and  _32
REMARK   18  A    between atoms: _31  and  _33
REMARK   19  A    between atoms: _34  and  _36
REMARK                            x       y       z     vdW  Elec       q    Type
REMARK                         _______ _______ _______ _____ _____    ______ ____
ROOT
ATOM      1  C   UNL     1      -3.180  11.711  26.053  0.00  0.00    +0.163 C 
ENDROOT
BRANCH   1   2
ATOM      2  O   UNL     1      -2.030  12.234  25.366  0.00  0.00    -0.388 OA
ATOM      3  H   UNL     1      -1.271  12.217  25.953  0.00  0.00    +0.210 HD
ENDBRANCH   1   2
BRANCH   1   4
ATOM      4  C   UNL     1      -3.770  10.507  25.299  0.00  0.00    +0.175 C 
BRANCH   4   5
ATOM      5  C   UNL     1      -4.545  10.934  24.044  0.00  0.00    +0.176 C 
ATOM      6  O   UNL     1      -3.579  11.363  23.046  0.00  0.00    -0.332 OA
ATOM      7  C   UNL     1      -4.134  11.710  21.734  0.00  0.00    +0.277 C 
ATOM      8  C   UNL     1      -5.244  12.780  21.882  0.00  0.00    +0.110 C 
ATOM      9  C   UNL     1      -6.278  12.382  22.956  0.00  0.00    +0.143 C 
ATOM     10  C   UNL     1      -5.592  12.039  24.278  0.00  0.00    +0.133 C 
BRANCH  10  11
ATOM     11  N   UNL     1      -6.580  11.578  25.267  0.00  0.00    -0.308 N 
ATOM     12  H   UNL     1      -7.037  10.693  25.100  0.00  0.00    +0.149 HD
ATOM     13  C   UNL     1      -6.912  12.254  26.370  0.00  0.00    +0.210 C 
ATOM     14  C   UNL     1      -6.217  13.612  26.583  0.00  0.00    +0.109 C 
ATOM     15  O   UNL     1      -7.732  11.837  27.189  0.00  0.00    -0.276 OA
ENDBRANCH  10  11
BRANCH   7  16
ATOM     16  C   UNL     1      -4.711  10.461  21.037  0.00  0.00    +0.414 C 
ATOM     17  O   UNL     1      -4.186   9.360  21.202  0.00  0.00    -0.240 OA
ATOM     18  O   UNL     1      -5.701  10.553  20.310  0.00  0.00    -0.240 OA
ENDBRANCH   7  16
BRANCH   7  19
ATOM     19  O   UNL     1      -3.065  12.269  20.928  0.00  0.00    -0.343 OA
ATOM     20  C   UNL     1      -2.923  13.709  21.013  0.00  0.00    +0.198 C 
ENDBRANCH   7  19
BRANCH   9  21
ATOM     21  O   UNL     1      -7.193  13.459  23.165  0.00  0.00    -0.390 OA
ATOM     22  H   UNL     1      -6.710  14.239  23.449  0.00  0.00    +0.210 HD
ENDBRANCH   9  21
ENDBRANCH   4   5
BRANCH   4  23
ATOM     23  O   UNL     1      -4.624   9.744  26.175  0.00  0.00    -0.387 OA
ATOM     24  H   UNL     1      -4.208   9.662  27.036  0.00  0.00    +0.210 HD
ENDBRANCH   4  23
ENDBRANCH   1   4
BRANCH   1  25
ATOM     25  C   UNL     1      -2.795  11.289  27.467  0.00  0.00    +0.141 C 
BRANCH  25  28
ATOM     26  C   UNL     1      -2.120   9.143  28.490  0.00  0.00    +0.401 C 
ATOM     27  O   UNL     1      -2.766   9.326  29.525  0.00  0.00    -0.226 OA
ATOM     28  N   UNL     1      -2.072  10.011  27.479  0.00  0.00    -0.279 N 
ATOM     29  H   UNL     1      -1.506   9.776  26.675  0.00  0.00    +0.152 HD
BRANCH  26  30
ATOM     30  O   UNL     1      -1.366   7.937  28.346  0.00  0.00    -0.444 OA
BRANCH  30  31
ATOM     31  C   UNL     1      -2.254   6.816  28.349  0.00  0.00    +0.292 C 
BRANCH  31  33
ATOM     32  N   UNL     1      -2.480   7.202  25.915  0.00  0.00    -0.131 NA
ATOM     33  C   UNL     1      -3.028   6.771  27.095  0.00  0.00    +0.120 A 
ATOM     34  C   UNL     1      -4.317   6.342  26.863  0.00  0.00    +0.137 A 
ATOM     35  N   UNL     1      -4.494   6.551  25.529  0.00  0.00    -0.251 N 
ATOM     36  N   UNL     1      -3.390   7.065  24.961  0.00  0.00    -0.065 NA
BRANCH  35  37
ATOM     37  C   UNL     1      -5.668   6.284  24.730  0.00  0.00    +0.156 C 
BRANCH  37  38
ATOM     38  C   UNL     1      -5.727   7.166  23.490  0.00  0.00    +0.143 C 
BRANCH  38  39
ATOM     39  C   UNL     1      -6.783   8.221  23.654  0.00  0.00    +0.306 C 
ATOM     40  O   UNL     1      -7.338   8.801  22.735  0.00  0.00    -0.251 OA
BRANCH  39  41
ATOM     41  O   UNL     1      -7.060   8.485  24.951  0.00  0.00    -0.481 OA
ATOM     42  H   UNL     1      -7.367   9.398  25.118  0.00  0.00    +0.295 HD
ENDBRANCH  39  41
ENDBRANCH  38  39
ENDBRANCH  37  38
ENDBRANCH  35  37
ENDBRANCH  31  33
ENDBRANCH  30  31
ENDBRANCH  26  30
ENDBRANCH  25  28
ENDBRANCH   1  25
TORSDOF 17
