REMARK VINA RESULT:    -4.859      1.467      2.206
REMARK INTER + INTRA:         -11.399
REMARK INTER:                  -7.601
REMARK INTRA:                  -3.798
REMARK UNBOUND:                -2.989
REMARK  Name = lig_assembled_51.pdb
REMARK  16 active torsions:
REMARK  status: ('A' for Active; 'I' for Inactive)
REMARK    1  A    between atoms: _2  and  _9
REMARK    2  A    between atoms: _4  and  _22
REMARK    3  A    between atoms: _6  and  _7
REMARK    4  A    between atoms: _6  and  _22
REMARK    5  A    between atoms: _18  and  _38
REMARK    6  A    between atoms: _20  and  _26
REMARK    7  A    between atoms: _21  and  _25
REMARK    8  A    between atoms: _25  and  _26
REMARK    9  A    between atoms: _28  and  _29
REMARK   10  A    between atoms: _30  and  _31
REMARK   11  A    between atoms: _32  and  _34
REMARK   12  A    between atoms: _34  and  _35
REMARK   13  A    between atoms: _34  and  _36
REMARK   14  A    between atoms: _36  and  _37
REMARK   15  A    between atoms: _36  and  _38
REMARK   16  A    between atoms: _39  and  _41
REMARK                            x       y       z     vdW  Elec       q    Type
REMARK                         _______ _______ _______ _____ _____    ______ ____
ROOT
ATOM      1  C   UNL     1      -3.025  11.190  23.639  0.00  0.00    +0.163 C 
ENDROOT
BRANCH   1   2
ATOM      2  O   UNL     1      -2.124  11.722  24.624  0.00  0.00    -0.388 OA
ATOM      3  H   UNL     1      -2.567  11.762  25.475  0.00  0.00    +0.210 HD
ENDBRANCH   1   2
BRANCH   1   4
ATOM      4  C   UNL     1      -3.323  12.247  22.580  0.00  0.00    +0.141 C 
BRANCH   4   7
ATOM      5  C   UNL     1      -5.198  13.844  22.776  0.00  0.00    +0.401 C 
ATOM      6  O   UNL     1      -5.877  13.299  21.902  0.00  0.00    -0.226 OA
ATOM      7  N   UNL     1      -3.990  13.423  23.153  0.00  0.00    -0.279 N 
ATOM      8  H   UNL     1      -3.507  13.942  23.872  0.00  0.00    +0.152 HD
BRANCH   5   9
ATOM      9  O   UNL     1      -5.717  15.001  23.437  0.00  0.00    -0.444 OA
BRANCH   9  10
ATOM     10  C   UNL     1      -7.042  14.732  23.903  0.00  0.00    +0.292 C 
BRANCH  10  12
ATOM     11  N   UNL     1      -8.116  14.678  26.132  0.00  0.00    -0.131 NA
ATOM     12  C   UNL     1      -7.027  14.425  25.345  0.00  0.00    +0.120 A 
ATOM     13  C   UNL     1      -6.029  13.881  26.121  0.00  0.00    +0.137 A 
ATOM     14  N   UNL     1      -6.567  13.832  27.377  0.00  0.00    -0.245 N 
ATOM     15  N   UNL     1      -7.824  14.312  27.372  0.00  0.00    -0.065 NA
BRANCH  14  16
ATOM     16  C   UNL     1      -5.931  13.350  28.606  0.00  0.00    +0.066 C 
ATOM     17  C   UNL     1      -6.873  12.353  29.337  0.00  0.00    +0.034 C 
ATOM     18  C   UNL     1      -6.204  11.799  30.607  0.00  0.00    -0.008 C 
ATOM     19  C   UNL     1      -4.899  11.082  30.221  0.00  0.00    +0.007 C 
ATOM     20  C   UNL     1      -3.938  12.067  29.536  0.00  0.00    -0.008 C 
ATOM     21  C   UNL     1      -3.630  13.227  30.495  0.00  0.00    +0.007 C 
ATOM     22  C   UNL     1      -4.930  13.952  30.876  0.00  0.00    -0.008 C 
ATOM     23  C   UNL     1      -5.883  12.959  31.560  0.00  0.00    +0.007 C 
ATOM     24  C   UNL     1      -4.602  12.622  28.265  0.00  0.00    +0.034 C 
ATOM     25  C   UNL     1      -5.597  14.501  29.602  0.00  0.00    +0.034 C 
ENDBRANCH  14  16
ENDBRANCH  10  12
ENDBRANCH   9  10
ENDBRANCH   5   9
ENDBRANCH   4   7
ENDBRANCH   1   4
BRANCH   1  26
ATOM     26  C   UNL     1      -4.341  10.730  24.289  0.00  0.00    +0.175 C 
BRANCH  26  27
ATOM     27  C   UNL     1      -4.103   9.976  25.606  0.00  0.00    +0.176 C 
ATOM     28  O   UNL     1      -3.074   8.976  25.368  0.00  0.00    -0.332 OA
ATOM     29  C   UNL     1      -2.637   8.224  26.548  0.00  0.00    +0.277 C 
ATOM     30  C   UNL     1      -3.850   7.569  27.253  0.00  0.00    +0.110 C 
ATOM     31  C   UNL     1      -4.983   8.587  27.498  0.00  0.00    +0.143 C 
ATOM     32  C   UNL     1      -5.357   9.314  26.206  0.00  0.00    +0.133 C 
BRANCH  32  33
ATOM     33  N   UNL     1      -6.377  10.342  26.469  0.00  0.00    -0.308 N 
ATOM     34  H   UNL     1      -6.110  11.137  27.033  0.00  0.00    +0.149 HD
ATOM     35  C   UNL     1      -7.631  10.292  26.012  0.00  0.00    +0.210 C 
ATOM     36  C   UNL     1      -8.013   9.055  25.178  0.00  0.00    +0.109 C 
ATOM     37  O   UNL     1      -8.459  11.175  26.236  0.00  0.00    -0.276 OA
ENDBRANCH  32  33
BRANCH  29  38
ATOM     38  C   UNL     1      -1.899   9.145  27.541  0.00  0.00    +0.414 C 
ATOM     39  O   UNL     1      -2.011   8.967  28.754  0.00  0.00    -0.240 OA
ATOM     40  O   UNL     1      -1.191  10.066  27.131  0.00  0.00    -0.240 OA
ENDBRANCH  29  38
BRANCH  31  41
ATOM     41  O   UNL     1      -6.134   7.913  28.008  0.00  0.00    -0.390 OA
ATOM     42  H   UNL     1      -6.928   8.374  27.726  0.00  0.00    +0.210 HD
ENDBRANCH  31  41
BRANCH  29  43
ATOM     43  O   UNL     1      -1.743   7.170  26.103  0.00  0.00    -0.343 OA
ATOM     44  C   UNL     1      -1.973   5.875  26.711  0.00  0.00    +0.198 C 
ENDBRANCH  29  43
ENDBRANCH  26  27
BRANCH  26  45
ATOM     45  O   UNL     1      -5.086   9.904  23.372  0.00  0.00    -0.387 OA
ATOM     46  H   UNL     1      -4.751  10.032  22.481  0.00  0.00    +0.210 HD
ENDBRANCH  26  45
ENDBRANCH   1  26
TORSDOF 14
