REMARK VINA RESULT:    -4.565      2.649     11.044
REMARK INTER + INTRA:         -11.380
REMARK INTER:                  -8.716
REMARK INTRA:                  -2.664
REMARK UNBOUND:                -2.678
REMARK  Name = lig_assembled_26.pdb
REMARK  20 active torsions:
REMARK  status: ('A' for Active; 'I' for Inactive)
REMARK    1  A    between atoms: _2  and  _9
REMARK    2  A    between atoms: _4  and  _23
REMARK    3  A    between atoms: _6  and  _7
REMARK    4  A    between atoms: _6  and  _23
REMARK    5  A    between atoms: _9  and  _10
REMARK    6  A    between atoms: _9  and  _11
REMARK    7  A    between atoms: _11  and  _12
REMARK    8  A    between atoms: _12  and  _13
REMARK    9  A    between atoms: _19  and  _39
REMARK   10  A    between atoms: _21  and  _27
REMARK   11  A    between atoms: _22  and  _26
REMARK   12  A    between atoms: _26  and  _27
REMARK   13  A    between atoms: _29  and  _30
REMARK   14  A    between atoms: _31  and  _32
REMARK   15  A    between atoms: _33  and  _35
REMARK   16  A    between atoms: _35  and  _36
REMARK   17  A    between atoms: _35  and  _37
REMARK   18  A    between atoms: _37  and  _38
REMARK   19  A    between atoms: _37  and  _39
REMARK   20  A    between atoms: _40  and  _42
REMARK                            x       y       z     vdW  Elec       q    Type
REMARK                         _______ _______ _______ _____ _____    ______ ____
ROOT
ATOM      1  C   UNL     1      -6.629  10.878  16.366  0.00  0.00    +0.163 C 
ENDROOT
BRANCH   1   2
ATOM      2  O   UNL     1      -5.438  11.610  16.035  0.00  0.00    -0.388 OA
ATOM      3  H   UNL     1      -5.675  12.413  15.564  0.00  0.00    +0.210 HD
ENDBRANCH   1   2
BRANCH   1   4
ATOM      4  C   UNL     1      -6.481   9.391  16.000  0.00  0.00    +0.175 C 
BRANCH   4   5
ATOM      5  C   UNL     1      -5.178   9.111  15.237  0.00  0.00    +0.176 C 
ATOM      6  O   UNL     1      -5.401   9.433  13.837  0.00  0.00    -0.332 OA
ATOM      7  C   UNL     1      -4.227   9.327  12.967  0.00  0.00    +0.277 C 
ATOM      8  C   UNL     1      -3.591   7.920  13.085  0.00  0.00    +0.110 C 
ATOM      9  C   UNL     1      -3.364   7.520  14.557  0.00  0.00    +0.143 C 
ATOM     10  C   UNL     1      -4.649   7.671  15.372  0.00  0.00    +0.133 C 
BRANCH  10  11
ATOM     11  N   UNL     1      -4.398   7.370  16.791  0.00  0.00    -0.308 N 
ATOM     12  H   UNL     1      -3.784   7.988  17.302  0.00  0.00    +0.149 HD
ATOM     13  C   UNL     1      -4.928   6.334  17.445  0.00  0.00    +0.210 C 
ATOM     14  C   UNL     1      -5.838   5.395  16.631  0.00  0.00    +0.109 C 
ATOM     15  O   UNL     1      -4.712   6.115  18.638  0.00  0.00    -0.276 OA
ENDBRANCH  10  11
BRANCH   7  16
ATOM     16  C   UNL     1      -3.178  10.398  13.330  0.00  0.00    +0.414 C 
ATOM     17  O   UNL     1      -1.991  10.221  13.059  0.00  0.00    -0.240 OA
ATOM     18  O   UNL     1      -3.518  11.439  13.894  0.00  0.00    -0.240 OA
ENDBRANCH   7  16
BRANCH   7  19
ATOM     19  O   UNL     1      -4.665   9.517  11.597  0.00  0.00    -0.343 OA
ATOM     20  C   UNL     1      -5.963   8.952  11.285  0.00  0.00    +0.198 C 
ENDBRANCH   7  19
BRANCH   9  21
ATOM     21  O   UNL     1      -2.920   6.164  14.625  0.00  0.00    -0.390 OA
ATOM     22  H   UNL     1      -2.216   6.088  15.273  0.00  0.00    +0.210 HD
ENDBRANCH   9  21
ENDBRANCH   4   5
BRANCH   4  23
ATOM     23  O   UNL     1      -7.614   8.954  15.225  0.00  0.00    -0.387 OA
ATOM     24  H   UNL     1      -7.720   8.005  15.318  0.00  0.00    +0.210 HD
ENDBRANCH   4  23
ENDBRANCH   1   4
BRANCH   1  25
ATOM     25  C   UNL     1      -6.926  11.009  17.856  0.00  0.00    +0.141 C 
BRANCH  25  28
ATOM     26  C   UNL     1      -4.887  10.662  19.209  0.00  0.00    +0.401 C 
ATOM     27  O   UNL     1      -4.981   9.433  19.207  0.00  0.00    -0.226 OA
ATOM     28  N   UNL     1      -5.755  11.478  18.608  0.00  0.00    -0.279 N 
ATOM     29  H   UNL     1      -5.597  12.473  18.673  0.00  0.00    +0.152 HD
BRANCH  26  30
ATOM     30  O   UNL     1      -3.791  11.274  19.894  0.00  0.00    -0.444 OA
BRANCH  30  31
ATOM     31  C   UNL     1      -4.287  12.083  20.963  0.00  0.00    +0.292 C 
BRANCH  31  33
ATOM     32  N   UNL     1      -3.338  10.262  22.355  0.00  0.00    -0.131 NA
ATOM     33  C   UNL     1      -3.925  11.495  22.265  0.00  0.00    +0.120 A 
ATOM     34  C   UNL     1      -4.079  12.015  23.529  0.00  0.00    +0.137 A 
ATOM     35  N   UNL     1      -3.594  11.043  24.352  0.00  0.00    -0.248 N 
ATOM     36  N   UNL     1      -3.122  10.000  23.638  0.00  0.00    -0.065 NA
BRANCH  35  37
ATOM     37  C   UNL     1      -3.466  11.036  25.801  0.00  0.00    +0.113 C 
ATOM     38  C   UNL     1      -4.151  12.216  26.504  0.00  0.00    +0.033 C 
BRANCH  37  39
ATOM     39  C   UNL     1      -3.868   9.688  26.427  0.00  0.00    +0.106 C 
BRANCH  39  40
ATOM     40  C   UNL     1      -2.746   8.996  27.177  0.00  0.00    +0.165 C 
ATOM     41  O   UNL     1      -1.750   8.552  26.608  0.00  0.00    -0.292 OA
BRANCH  40  42
ATOM     42  C   UNL     1      -2.875   8.810  28.654  0.00  0.00    +0.017 A 
ATOM     43  C   UNL     1      -2.817   7.549  29.261  0.00  0.00    +0.011 A 
ATOM     44  C   UNL     1      -2.901   7.437  30.651  0.00  0.00    +0.001 A 
ATOM     45  C   UNL     1      -3.049   8.578  31.439  0.00  0.00    +0.000 A 
ATOM     46  C   UNL     1      -3.119   9.833  30.843  0.00  0.00    +0.001 A 
ATOM     47  C   UNL     1      -3.031   9.950  29.455  0.00  0.00    +0.011 A 
ENDBRANCH  40  42
ENDBRANCH  39  40
ENDBRANCH  37  39
ENDBRANCH  35  37
ENDBRANCH  31  33
ENDBRANCH  30  31
ENDBRANCH  26  30
ENDBRANCH  25  28
ENDBRANCH   1  25
TORSDOF 17
