REMARK VINA RESULT:    -3.902      1.676      2.357
REMARK INTER + INTRA:         -11.124
REMARK INTER:                  -8.156
REMARK INTRA:                  -2.968
REMARK UNBOUND:                -3.458
REMARK  Name = lig_assembled_43.pdb
REMARK  20 active torsions:
REMARK  status: ('A' for Active; 'I' for Inactive)
REMARK    1  A    between atoms: _2  and  _9
REMARK    2  A    between atoms: _4  and  _18
REMARK    3  A    between atoms: _6  and  _7
REMARK    4  A    between atoms: _6  and  _18
REMARK    5  A    between atoms: _9  and  _10
REMARK    6  A    between atoms: _10  and  _11
REMARK    7  A    between atoms: _11  and  _12
REMARK    8  A    between atoms: _12  and  _13
REMARK    9  A    between atoms: _14  and  _34
REMARK   10  A    between atoms: _16  and  _22
REMARK   11  A    between atoms: _17  and  _21
REMARK   12  A    between atoms: _21  and  _22
REMARK   13  A    between atoms: _24  and  _25
REMARK   14  A    between atoms: _26  and  _27
REMARK   15  A    between atoms: _28  and  _30
REMARK   16  A    between atoms: _30  and  _31
REMARK   17  A    between atoms: _30  and  _32
REMARK   18  A    between atoms: _32  and  _33
REMARK   19  A    between atoms: _32  and  _34
REMARK   20  A    between atoms: _35  and  _37
REMARK                            x       y       z     vdW  Elec       q    Type
REMARK                         _______ _______ _______ _____ _____    ______ ____
ROOT
ATOM      1  C   UNL     1      -4.138   9.011  29.134  0.00  0.00    +0.163 C 
ENDROOT
BRANCH   1   2
ATOM      2  O   UNL     1      -5.068   8.707  30.187  0.00  0.00    -0.388 OA
ATOM      3  H   UNL     1      -5.881   8.364  29.808  0.00  0.00    +0.210 HD
ENDBRANCH   1   2
BRANCH   1   4
ATOM      4  C   UNL     1      -2.998   9.907  29.648  0.00  0.00    +0.175 C 
BRANCH   4   5
ATOM      5  C   UNL     1      -3.512  11.264  30.149  0.00  0.00    +0.176 C 
ATOM      6  O   UNL     1      -4.206  11.043  31.407  0.00  0.00    -0.332 OA
ATOM      7  C   UNL     1      -4.678  12.250  32.093  0.00  0.00    +0.277 C 
ATOM      8  C   UNL     1      -5.564  13.097  31.148  0.00  0.00    +0.110 C 
ATOM      9  C   UNL     1      -4.880  13.333  29.784  0.00  0.00    +0.143 C 
ATOM     10  C   UNL     1      -4.428  12.012  29.162  0.00  0.00    +0.133 C 
BRANCH  10  11
ATOM     11  N   UNL     1      -3.701  12.256  27.906  0.00  0.00    -0.308 N 
ATOM     12  H   UNL     1      -2.779  12.665  27.967  0.00  0.00    +0.149 HD
ATOM     13  C   UNL     1      -4.180  11.972  26.692  0.00  0.00    +0.210 C 
ATOM     14  C   UNL     1      -5.598  11.373  26.633  0.00  0.00    +0.109 C 
ATOM     15  O   UNL     1      -3.543  12.174  25.658  0.00  0.00    -0.276 OA
ENDBRANCH  10  11
BRANCH   7  16
ATOM     16  C   UNL     1      -3.487  13.100  32.583  0.00  0.00    +0.414 C 
ATOM     17  O   UNL     1      -3.528  14.327  32.505  0.00  0.00    -0.240 OA
ATOM     18  O   UNL     1      -2.487  12.560  33.057  0.00  0.00    -0.240 OA
ENDBRANCH   7  16
BRANCH   9  19
ATOM     19  O   UNL     1      -5.789  13.984  28.896  0.00  0.00    -0.390 OA
ATOM     20  H   UNL     1      -6.033  13.383  28.189  0.00  0.00    +0.210 HD
ENDBRANCH   9  19
BRANCH   7  21
ATOM     21  O   UNL     1      -5.483  11.837  33.227  0.00  0.00    -0.343 OA
ATOM     22  C   UNL     1      -6.412  12.837  33.715  0.00  0.00    +0.198 C 
ENDBRANCH   7  21
ENDBRANCH   4   5
BRANCH   4  23
ATOM     23  O   UNL     1      -2.013  10.100  28.613  0.00  0.00    -0.387 OA
ATOM     24  H   UNL     1      -2.042  11.010  28.309  0.00  0.00    +0.210 HD
ENDBRANCH   4  23
ENDBRANCH   1   4
BRANCH   1  25
ATOM     25  C   UNL     1      -3.555   7.721  28.565  0.00  0.00    +0.141 C 
BRANCH  25  28
ATOM     26  C   UNL     1      -3.064   7.969  26.156  0.00  0.00    +0.401 C 
ATOM     27  O   UNL     1      -1.982   8.531  26.338  0.00  0.00    -0.226 OA
ATOM     28  N   UNL     1      -3.867   7.562  27.139  0.00  0.00    -0.279 N 
ATOM     29  H   UNL     1      -4.740   7.118  26.889  0.00  0.00    +0.152 HD
BRANCH  26  30
ATOM     30  O   UNL     1      -3.507   7.732  24.817  0.00  0.00    -0.444 OA
BRANCH  30  31
ATOM     31  C   UNL     1      -4.679   8.509  24.557  0.00  0.00    +0.292 C 
BRANCH  31  33
ATOM     32  N   UNL     1      -3.241   9.486  22.794  0.00  0.00    -0.131 NA
ATOM     33  C   UNL     1      -4.406   9.516  23.516  0.00  0.00    +0.120 A 
ATOM     34  C   UNL     1      -5.168  10.583  23.096  0.00  0.00    +0.137 A 
ATOM     35  N   UNL     1      -4.410  11.163  22.123  0.00  0.00    -0.251 N 
ATOM     36  N   UNL     1      -3.255  10.503  21.942  0.00  0.00    -0.065 NA
BRANCH  35  37
ATOM     37  C   UNL     1      -4.702  12.354  21.355  0.00  0.00    +0.145 C 
BRANCH  37  38
ATOM     38  C   UNL     1      -3.525  13.325  21.358  0.00  0.00    +0.024 C 
BRANCH  38  39
ATOM     39  C   UNL     1      -3.417  14.094  22.676  0.00  0.00    +0.006 C 
BRANCH  39  40
ATOM     40  C   UNL     1      -4.802  14.539  23.153  0.00  0.00    +0.026 C 
BRANCH  40  41
ATOM     41  C   UNL     1      -5.178  15.886  22.609  0.00  0.00    -0.034 C 
ATOM     42  C   UNL     1      -6.238  16.102  21.819  0.00  0.00    +0.004 C 
ENDBRANCH  40  41
ENDBRANCH  39  40
ENDBRANCH  38  39
ENDBRANCH  37  38
ENDBRANCH  35  37
ENDBRANCH  31  33
ENDBRANCH  30  31
ENDBRANCH  26  30
ENDBRANCH  25  28
ENDBRANCH   1  25
TORSDOF 18
