REMARK VINA RESULT:    -5.904      3.446     10.929
REMARK INTER + INTRA:         -12.693
REMARK INTER:                  -9.375
REMARK INTRA:                  -3.318
REMARK UNBOUND:                -2.475
REMARK  Name = lig_assembled_25.pdb
REMARK  16 active torsions:
REMARK  status: ('A' for Active; 'I' for Inactive)
REMARK    1  A    between atoms: _2  and  _9
REMARK    2  A    between atoms: _4  and  _25
REMARK    3  A    between atoms: _6  and  _7
REMARK    4  A    between atoms: _6  and  _25
REMARK    5  A    between atoms: _21  and  _41
REMARK    6  A    between atoms: _23  and  _29
REMARK    7  A    between atoms: _24  and  _28
REMARK    8  A    between atoms: _28  and  _29
REMARK    9  A    between atoms: _31  and  _32
REMARK   10  A    between atoms: _33  and  _34
REMARK   11  A    between atoms: _35  and  _37
REMARK   12  A    between atoms: _37  and  _38
REMARK   13  A    between atoms: _37  and  _39
REMARK   14  A    between atoms: _39  and  _40
REMARK   15  A    between atoms: _39  and  _41
REMARK   16  A    between atoms: _42  and  _44
REMARK                            x       y       z     vdW  Elec       q    Type
REMARK                         _______ _______ _______ _____ _____    ______ ____
ROOT
ATOM      1  C   UNL     1      -6.002   7.719  22.852  0.00  0.00    +0.141 C 
ENDROOT
BRANCH   1   4
ATOM      2  C   UNL     1      -3.819   6.733  23.457  0.00  0.00    +0.401 C 
ATOM      3  O   UNL     1      -3.549   6.388  22.305  0.00  0.00    -0.226 OA
ATOM      4  N   UNL     1      -4.946   7.356  23.805  0.00  0.00    -0.279 N 
ATOM      5  H   UNL     1      -5.081   7.590  24.778  0.00  0.00    +0.152 HD
BRANCH   2   6
ATOM      6  O   UNL     1      -2.883   6.457  24.502  0.00  0.00    -0.444 OA
BRANCH   6   7
ATOM      7  C   UNL     1      -3.579   6.315  25.743  0.00  0.00    +0.292 C 
BRANCH   7   9
ATOM      8  N   UNL     1      -1.762   7.696  26.687  0.00  0.00    -0.131 NA
ATOM      9  C   UNL     1      -3.064   7.276  26.737  0.00  0.00    +0.120 A 
ATOM     10  C   UNL     1      -3.688   7.871  27.810  0.00  0.00    +0.138 A 
ATOM     11  N   UNL     1      -2.710   8.629  28.389  0.00  0.00    -0.240 N 
ATOM     12  N   UNL     1      -1.554   8.526  27.698  0.00  0.00    -0.064 NA
BRANCH  11  13
ATOM     13  C   UNL     1      -2.735   9.407  29.617  0.00  0.00    +0.170 C 
ATOM     14  C   UNL     1      -3.307   8.623  30.790  0.00  0.00    -0.011 A 
ATOM     15  C   UNL     1      -4.391   9.328  31.359  0.00  0.00    -0.012 A 
ATOM     16  C   UNL     1      -4.599  10.553  30.613  0.00  0.00    -0.012 A 
ATOM     17  C   UNL     1      -5.509  11.578  30.809  0.00  0.00    +0.009 A 
ATOM     18  C   UNL     1      -5.469  12.677  29.946  0.00  0.00    +0.001 A 
ATOM     19  C   UNL     1      -4.532  12.738  28.900  0.00  0.00    +0.000 A 
ATOM     20  C   UNL     1      -3.613  11.704  28.699  0.00  0.00    +0.006 A 
ATOM     21  C   UNL     1      -5.059   8.819  32.459  0.00  0.00    +0.009 A 
ATOM     22  C   UNL     1      -4.634   7.596  32.990  0.00  0.00    +0.001 A 
ATOM     23  C   UNL     1      -3.553   6.901  32.424  0.00  0.00    +0.000 A 
ATOM     24  C   UNL     1      -2.875   7.412  31.316  0.00  0.00    +0.006 A 
ATOM     25  C   UNL     1      -3.657  10.617  29.559  0.00  0.00    -0.011 A 
ENDBRANCH  11  13
ENDBRANCH   7   9
ENDBRANCH   6   7
ENDBRANCH   2   6
ENDBRANCH   1   4
BRANCH   1  26
ATOM     26  C   UNL     1      -6.783   8.947  23.310  0.00  0.00    +0.163 C 
BRANCH  26  27
ATOM     27  O   UNL     1      -6.434   9.274  24.665  0.00  0.00    -0.388 OA
ATOM     28  H   UNL     1      -6.346   8.467  25.177  0.00  0.00    +0.210 HD
ENDBRANCH  26  27
BRANCH  26  29
ATOM     29  C   UNL     1      -6.487  10.125  22.365  0.00  0.00    +0.175 C 
BRANCH  29  30
ATOM     30  C   UNL     1      -5.153  10.810  22.696  0.00  0.00    +0.176 C 
ATOM     31  O   UNL     1      -5.367  11.671  23.849  0.00  0.00    -0.332 OA
ATOM     32  C   UNL     1      -4.170  12.332  24.377  0.00  0.00    +0.277 C 
ATOM     33  C   UNL     1      -3.450  13.124  23.258  0.00  0.00    +0.110 C 
ATOM     34  C   UNL     1      -3.229  12.259  21.999  0.00  0.00    +0.143 C 
ATOM     35  C   UNL     1      -4.538  11.617  21.538  0.00  0.00    +0.133 C 
BRANCH  35  36
ATOM     36  N   UNL     1      -4.300  10.727  20.391  0.00  0.00    -0.308 N 
ATOM     37  H   UNL     1      -3.636   9.974  20.509  0.00  0.00    +0.149 HD
ATOM     38  C   UNL     1      -4.902  10.849  19.205  0.00  0.00    +0.210 C 
ATOM     39  C   UNL     1      -5.887  12.022  19.050  0.00  0.00    +0.109 C 
ATOM     40  O   UNL     1      -4.693  10.079  18.267  0.00  0.00    -0.276 OA
ENDBRANCH  35  36
BRANCH  32  41
ATOM     41  C   UNL     1      -3.198  11.299  24.984  0.00  0.00    +0.414 C 
ATOM     42  O   UNL     1      -2.076  11.644  25.351  0.00  0.00    -0.240 OA
ATOM     43  O   UNL     1      -3.536  10.121  25.106  0.00  0.00    -0.240 OA
ENDBRANCH  32  41
BRANCH  34  44
ATOM     44  O   UNL     1      -2.704  13.066  20.945  0.00  0.00    -0.390 OA
ATOM     45  H   UNL     1      -2.284  13.845  21.317  0.00  0.00    +0.210 HD
ENDBRANCH  34  44
BRANCH  32  46
ATOM     46  O   UNL     1      -4.590  13.268  25.403  0.00  0.00    -0.343 OA
ATOM     47  C   UNL     1      -5.861  13.919  25.154  0.00  0.00    +0.198 C 
ENDBRANCH  32  46
ENDBRANCH  29  30
BRANCH  29  48
ATOM     48  O   UNL     1      -7.563  11.083  22.414  0.00  0.00    -0.387 OA
ATOM     49  H   UNL     1      -7.398  11.715  23.118  0.00  0.00    +0.210 HD
ENDBRANCH  29  48
ENDBRANCH  26  29
ENDBRANCH   1  26
TORSDOF 14
