REMARK VINA RESULT:    -4.224      5.522     11.951
REMARK INTER + INTRA:         -10.887
REMARK INTER:                  -8.272
REMARK INTRA:                  -2.615
REMARK UNBOUND:                -2.835
REMARK  Name = lig_assembled_13.pdb
REMARK  20 active torsions:
REMARK  status: ('A' for Active; 'I' for Inactive)
REMARK    1  A    between atoms: _2  and  _9
REMARK    2  A    between atoms: _4  and  _18
REMARK    3  A    between atoms: _5  and  _11
REMARK    4  A    between atoms: _6  and  _7
REMARK    5  A    between atoms: _6  and  _18
REMARK    6  A    between atoms: _9  and  _10
REMARK    7  A    between atoms: _10  and  _12
REMARK    8  A    between atoms: _11  and  _12
REMARK    9  A    between atoms: _14  and  _34
REMARK   10  A    between atoms: _16  and  _22
REMARK   11  A    between atoms: _17  and  _21
REMARK   12  A    between atoms: _21  and  _22
REMARK   13  A    between atoms: _24  and  _25
REMARK   14  A    between atoms: _26  and  _27
REMARK   15  A    between atoms: _28  and  _30
REMARK   16  A    between atoms: _30  and  _31
REMARK   17  A    between atoms: _30  and  _32
REMARK   18  A    between atoms: _32  and  _33
REMARK   19  A    between atoms: _32  and  _34
REMARK   20  A    between atoms: _35  and  _37
REMARK                            x       y       z     vdW  Elec       q    Type
REMARK                         _______ _______ _______ _____ _____    ______ ____
ROOT
ATOM      1  C   UNL     1      -5.153   7.363  23.863  0.00  0.00    +0.163 C 
ENDROOT
BRANCH   1   2
ATOM      2  O   UNL     1      -3.947   6.852  24.454  0.00  0.00    -0.388 OA
ATOM      3  H   UNL     1      -3.189   7.314  24.087  0.00  0.00    +0.210 HD
ENDBRANCH   1   2
BRANCH   1   4
ATOM      4  C   UNL     1      -4.945   8.794  23.339  0.00  0.00    +0.175 C 
BRANCH   4   5
ATOM      5  C   UNL     1      -3.898   9.563  24.158  0.00  0.00    +0.176 C 
ATOM      6  O   UNL     1      -4.264   9.459  25.562  0.00  0.00    -0.332 OA
ATOM      7  C   UNL     1      -3.314  10.049  26.510  0.00  0.00    +0.277 C 
ATOM      8  C   UNL     1      -3.038  11.529  26.149  0.00  0.00    +0.110 C 
ATOM      9  C   UNL     1      -2.676  11.694  24.658  0.00  0.00    +0.143 C 
ATOM     10  C   UNL     1      -3.729  11.042  23.762  0.00  0.00    +0.133 C 
BRANCH  10  11
ATOM     11  N   UNL     1      -3.330  11.129  22.349  0.00  0.00    -0.308 N 
ATOM     12  H   UNL     1      -2.492  10.641  22.064  0.00  0.00    +0.149 HD
ATOM     13  C   UNL     1      -4.001  11.812  21.417  0.00  0.00    +0.210 C 
ATOM     14  C   UNL     1      -5.258  12.568  21.888  0.00  0.00    +0.109 C 
ATOM     15  O   UNL     1      -3.650  11.856  20.238  0.00  0.00    -0.276 OA
ENDBRANCH  10  11
BRANCH   7  16
ATOM     16  C   UNL     1      -1.986   9.263  26.514  0.00  0.00    +0.414 C 
ATOM     17  O   UNL     1      -1.989   8.041  26.370  0.00  0.00    -0.240 OA
ATOM     18  O   UNL     1      -0.914   9.851  26.660  0.00  0.00    -0.240 OA
ENDBRANCH   7  16
BRANCH   7  19
ATOM     19  O   UNL     1      -3.912  10.004  27.831  0.00  0.00    -0.343 OA
ATOM     20  C   UNL     1      -5.037   9.099  27.963  0.00  0.00    +0.198 C 
ENDBRANCH   7  19
BRANCH   9  21
ATOM     21  O   UNL     1      -2.579  13.082  24.336  0.00  0.00    -0.390 OA
ATOM     22  H   UNL     1      -1.821  13.463  24.786  0.00  0.00    +0.210 HD
ENDBRANCH   9  21
ENDBRANCH   4   5
BRANCH   4  23
ATOM     23  O   UNL     1      -6.197   9.509  23.337  0.00  0.00    -0.387 OA
ATOM     24  H   UNL     1      -6.646   9.372  24.175  0.00  0.00    +0.210 HD
ENDBRANCH   4  23
ENDBRANCH   1   4
BRANCH   1  25
ATOM     25  C   UNL     1      -5.596   6.460  22.716  0.00  0.00    +0.141 C 
BRANCH  25  28
ATOM     26  C   UNL     1      -5.604   6.553  20.247  0.00  0.00    +0.401 C 
ATOM     27  O   UNL     1      -5.600   5.328  20.107  0.00  0.00    -0.226 OA
ATOM     28  N   UNL     1      -5.596   7.168  21.430  0.00  0.00    -0.279 N 
ATOM     29  H   UNL     1      -5.591   8.178  21.443  0.00  0.00    +0.152 HD
BRANCH  26  30
ATOM     30  O   UNL     1      -5.613   7.385  19.084  0.00  0.00    -0.444 OA
BRANCH  30  31
ATOM     31  C   UNL     1      -5.879   6.587  17.928  0.00  0.00    +0.292 C 
BRANCH  31  33
ATOM     32  N   UNL     1      -3.537   6.857  17.177  0.00  0.00    -0.131 NA
ATOM     33  C   UNL     1      -4.873   6.844  16.882  0.00  0.00    +0.120 A 
ATOM     34  C   UNL     1      -5.042   7.102  15.544  0.00  0.00    +0.137 A 
ATOM     35  N   UNL     1      -3.775   7.332  15.091  0.00  0.00    -0.241 N 
ATOM     36  N   UNL     1      -2.870   7.137  16.063  0.00  0.00    -0.065 NA
BRANCH  35  37
ATOM     37  C   UNL     1      -3.346   7.636  13.744  0.00  0.00    +0.265 C 
BRANCH  37  38
ATOM     38  C   UNL     1      -2.641   8.959  13.663  0.00  0.00    +0.329 C 
ATOM     39  O   UNL     1      -1.437   9.137  13.552  0.00  0.00    -0.249 OA
BRANCH  38  40
ATOM     40  O   UNL     1      -3.555   9.960  13.840  0.00  0.00    -0.464 OA
BRANCH  40  41
ATOM     41  C   UNL     1      -3.166  10.976  14.777  0.00  0.00    +0.229 C 
ATOM     42  C   UNL     1      -3.885  10.702  16.086  0.00  0.00    +0.048 C 
ENDBRANCH  40  41
ENDBRANCH  38  40
ENDBRANCH  37  38
ENDBRANCH  35  37
ENDBRANCH  31  33
ENDBRANCH  30  31
ENDBRANCH  26  30
ENDBRANCH  25  28
ENDBRANCH   1  25
TORSDOF 17
