REMARK VINA RESULT:    -4.586      1.904      2.511
REMARK INTER + INTRA:         -11.184
REMARK INTER:                  -8.628
REMARK INTRA:                  -2.557
REMARK UNBOUND:                -2.711
REMARK  Name = lig_assembled_36.pdb
REMARK  18 active torsions:
REMARK  status: ('A' for Active; 'I' for Inactive)
REMARK    1  A    between atoms: _2  and  _10
REMARK    2  A    between atoms: _5  and  _21
REMARK    3  A    between atoms: _7  and  _8
REMARK    4  A    between atoms: _7  and  _21
REMARK    5  A    between atoms: _10  and  _11
REMARK    6  A    between atoms: _14  and  _15
REMARK    7  A    between atoms: _17  and  _37
REMARK    8  A    between atoms: _19  and  _25
REMARK    9  A    between atoms: _20  and  _24
REMARK   10  A    between atoms: _24  and  _25
REMARK   11  A    between atoms: _27  and  _28
REMARK   12  A    between atoms: _29  and  _30
REMARK   13  A    between atoms: _31  and  _33
REMARK   14  A    between atoms: _33  and  _34
REMARK   15  A    between atoms: _33  and  _35
REMARK   16  A    between atoms: _35  and  _36
REMARK   17  A    between atoms: _35  and  _37
REMARK   18  A    between atoms: _38  and  _40
REMARK                            x       y       z     vdW  Elec       q    Type
REMARK                         _______ _______ _______ _____ _____    ______ ____
ROOT
ATOM      1  C   UNL     1      -4.404  10.689  25.506  0.00  0.00    +0.163 C 
ENDROOT
BRANCH   1   2
ATOM      2  O   UNL     1      -4.983  10.157  24.304  0.00  0.00    -0.388 OA
ATOM      3  H   UNL     1      -4.648  10.640  23.545  0.00  0.00    +0.210 HD
ENDBRANCH   1   2
BRANCH   1   4
ATOM      4  C   UNL     1      -2.957  10.198  25.684  0.00  0.00    +0.175 C 
BRANCH   4   5
ATOM      5  C   UNL     1      -2.885   8.882  26.473  0.00  0.00    +0.176 C 
ATOM      6  O   UNL     1      -3.353   7.814  25.604  0.00  0.00    -0.332 OA
ATOM      7  C   UNL     1      -3.256   6.459  26.157  0.00  0.00    +0.277 C 
ATOM      8  C   UNL     1      -3.981   6.379  27.523  0.00  0.00    +0.110 C 
ATOM      9  C   UNL     1      -3.540   7.515  28.469  0.00  0.00    +0.143 C 
ATOM     10  C   UNL     1      -3.679   8.879  27.793  0.00  0.00    +0.133 C 
BRANCH  10  11
ATOM     11  N   UNL     1      -3.174   9.945  28.672  0.00  0.00    -0.308 N 
ATOM     12  H   UNL     1      -2.179   9.984  28.843  0.00  0.00    +0.149 HD
ATOM     13  C   UNL     1      -3.945  10.863  29.261  0.00  0.00    +0.210 C 
ATOM     14  C   UNL     1      -5.460  10.760  29.002  0.00  0.00    +0.109 C 
ATOM     15  O   UNL     1      -3.493  11.754  29.981  0.00  0.00    -0.276 OA
ENDBRANCH  10  11
BRANCH   7  16
ATOM     16  C   UNL     1      -1.780   6.044  26.332  0.00  0.00    +0.414 C 
ATOM     17  O   UNL     1      -0.968   6.247  25.430  0.00  0.00    -0.240 OA
ATOM     18  O   UNL     1      -1.402   5.507  27.373  0.00  0.00    -0.240 OA
ENDBRANCH   7  16
BRANCH   7  19
ATOM     19  O   UNL     1      -3.913   5.551  25.236  0.00  0.00    -0.343 OA
ATOM     20  C   UNL     1      -5.021   6.124  24.497  0.00  0.00    +0.198 C 
ENDBRANCH   7  19
BRANCH   9  21
ATOM     21  O   UNL     1      -4.339   7.493  29.653  0.00  0.00    -0.390 OA
ATOM     22  H   UNL     1      -4.095   8.230  30.218  0.00  0.00    +0.210 HD
ENDBRANCH   9  21
ENDBRANCH   4   5
BRANCH   4  23
ATOM     23  O   UNL     1      -2.164  11.211  26.334  0.00  0.00    -0.387 OA
ATOM     24  H   UNL     1      -2.143  12.001  25.789  0.00  0.00    +0.210 HD
ENDBRANCH   4  23
ENDBRANCH   1   4
BRANCH   1  25
ATOM     25  C   UNL     1      -4.423  12.213  25.465  0.00  0.00    +0.141 C 
BRANCH  25  28
ATOM     26  C   UNL     1      -4.579  13.539  23.385  0.00  0.00    +0.401 C 
ATOM     27  O   UNL     1      -5.730  13.923  23.605  0.00  0.00    -0.226 OA
ATOM     28  N   UNL     1      -3.894  12.733  24.197  0.00  0.00    -0.279 N 
ATOM     29  H   UNL     1      -2.958  12.465  23.926  0.00  0.00    +0.152 HD
BRANCH  26  30
ATOM     30  O   UNL     1      -3.920  13.967  22.190  0.00  0.00    -0.444 OA
BRANCH  30  31
ATOM     31  C   UNL     1      -2.983  12.968  21.777  0.00  0.00    +0.292 C 
BRANCH  31  33
ATOM     32  N   UNL     1      -3.874  10.688  21.403  0.00  0.00    -0.131 NA
ATOM     33  C   UNL     1      -3.651  11.957  20.938  0.00  0.00    +0.120 A 
ATOM     34  C   UNL     1      -4.160  12.066  19.663  0.00  0.00    +0.137 A 
ATOM     35  N   UNL     1      -4.762  10.860  19.450  0.00  0.00    -0.247 N 
ATOM     36  N   UNL     1      -4.540  10.016  20.474  0.00  0.00    -0.065 NA
BRANCH  35  37
ATOM     37  C   UNL     1      -5.568  10.453  18.316  0.00  0.00    +0.180 C 
BRANCH  37  38
ATOM     38  C   UNL     1      -4.842  10.694  17.012  0.00  0.00    -0.026 A 
ATOM     39  C   UNL     1      -5.067  11.860  16.267  0.00  0.00    +0.007 A 
ATOM     40  C   UNL     1      -4.387  12.077  15.064  0.00  0.00    +0.019 A 
ATOM     41  C   UNL     1      -3.477  11.127  14.588  0.00  0.00    +0.052 A 
ATOM     42  C   UNL     1      -3.266   9.951  15.312  0.00  0.00    +0.019 A 
ATOM     43  C   UNL     1      -3.946   9.734  16.514  0.00  0.00    +0.007 A 
BRANCH  41  44
ATOM     44  C   UNL     1      -2.765  11.361  13.364  0.00  0.00    +0.099 C 
ATOM     45  N   UNL     1      -2.183  11.540  12.377  0.00  0.00    -0.191 NA
ENDBRANCH  41  44
ENDBRANCH  37  38
ENDBRANCH  35  37
ENDBRANCH  31  33
ENDBRANCH  30  31
ENDBRANCH  26  30
ENDBRANCH  25  28
ENDBRANCH   1  25
TORSDOF 16
