REMARK VINA RESULT:    -5.577      4.709      9.654
REMARK INTER + INTRA:         -13.032
REMARK INTER:                 -10.600
REMARK INTRA:                  -2.433
REMARK UNBOUND:                -2.890
REMARK  Name = lig_assembled_73.pdb
REMARK  18 active torsions:
REMARK  status: ('A' for Active; 'I' for Inactive)
REMARK    1  A    between atoms: _2  and  _10
REMARK    2  A    between atoms: _3  and  _14
REMARK    3  A    between atoms: _5  and  _22
REMARK    4  A    between atoms: _7  and  _8
REMARK    5  A    between atoms: _7  and  _22
REMARK    6  A    between atoms: _13  and  _16
REMARK    7  A    between atoms: _18  and  _38
REMARK    8  A    between atoms: _20  and  _26
REMARK    9  A    between atoms: _21  and  _25
REMARK   10  A    between atoms: _25  and  _26
REMARK   11  A    between atoms: _28  and  _29
REMARK   12  A    between atoms: _30  and  _31
REMARK   13  A    between atoms: _32  and  _34
REMARK   14  A    between atoms: _34  and  _35
REMARK   15  A    between atoms: _34  and  _36
REMARK   16  A    between atoms: _36  and  _37
REMARK   17  A    between atoms: _36  and  _38
REMARK   18  A    between atoms: _39  and  _41
REMARK                            x       y       z     vdW  Elec       q    Type
REMARK                         _______ _______ _______ _____ _____    ______ ____
ROOT
ATOM      1  C   UNL     1      -3.319  11.796  25.086  0.00  0.00    +0.163 C 
ENDROOT
BRANCH   1   2
ATOM      2  O   UNL     1      -2.129  10.996  24.990  0.00  0.00    -0.388 OA
ATOM      3  H   UNL     1      -1.362  11.536  25.196  0.00  0.00    +0.210 HD
ENDBRANCH   1   2
BRANCH   1   4
ATOM      4  C   UNL     1      -3.653  12.112  26.554  0.00  0.00    +0.175 C 
BRANCH   4   5
ATOM      5  C   UNL     1      -3.366  10.922  27.481  0.00  0.00    +0.176 C 
ATOM      6  O   UNL     1      -3.980   9.741  26.896  0.00  0.00    -0.332 OA
ATOM      7  C   UNL     1      -3.719   8.478  27.594  0.00  0.00    +0.277 C 
ATOM      8  C   UNL     1      -4.120   8.592  29.085  0.00  0.00    +0.110 C 
ATOM      9  C   UNL     1      -3.516   9.851  29.743  0.00  0.00    +0.143 C 
ATOM     10  C   UNL     1      -3.846  11.105  28.933  0.00  0.00    +0.133 C 
BRANCH  10  11
ATOM     11  N   UNL     1      -3.193  12.285  29.521  0.00  0.00    -0.308 N 
ATOM     12  H   UNL     1      -2.183  12.322  29.506  0.00  0.00    +0.149 HD
ATOM     13  C   UNL     1      -3.847  13.311  30.073  0.00  0.00    +0.210 C 
ATOM     14  C   UNL     1      -5.384  13.212  30.103  0.00  0.00    +0.109 C 
ATOM     15  O   UNL     1      -3.274  14.293  30.545  0.00  0.00    -0.276 OA
ENDBRANCH  10  11
BRANCH   7  16
ATOM     16  C   UNL     1      -2.229   8.093  27.489  0.00  0.00    +0.414 C 
ATOM     17  O   UNL     1      -1.595   8.340  26.464  0.00  0.00    -0.240 OA
ATOM     18  O   UNL     1      -1.661   7.535  28.429  0.00  0.00    -0.240 OA
ENDBRANCH   7  16
BRANCH   9  19
ATOM     19  O   UNL     1      -4.031   9.997  31.067  0.00  0.00    -0.390 OA
ATOM     20  H   UNL     1      -4.515   9.205  31.312  0.00  0.00    +0.210 HD
ENDBRANCH   9  19
BRANCH   7  21
ATOM     21  O   UNL     1      -4.535   7.448  26.979  0.00  0.00    -0.343 OA
ATOM     22  C   UNL     1      -5.920   7.815  26.756  0.00  0.00    +0.198 C 
ENDBRANCH   7  21
ENDBRANCH   4   5
BRANCH   4  23
ATOM     23  O   UNL     1      -5.032  12.514  26.674  0.00  0.00    -0.387 OA
ATOM     24  H   UNL     1      -5.353  12.817  25.821  0.00  0.00    +0.210 HD
ENDBRANCH   4  23
ENDBRANCH   1   4
BRANCH   1  25
ATOM     25  C   UNL     1      -3.135  13.098  24.313  0.00  0.00    +0.141 C 
BRANCH  25  28
ATOM     26  C   UNL     1      -5.154  13.380  22.916  0.00  0.00    +0.401 C 
ATOM     27  O   UNL     1      -5.881  13.687  23.863  0.00  0.00    -0.226 OA
ATOM     28  N   UNL     1      -3.859  13.083  23.036  0.00  0.00    -0.279 N 
ATOM     29  H   UNL     1      -3.348  12.833  22.201  0.00  0.00    +0.152 HD
BRANCH  26  30
ATOM     30  O   UNL     1      -5.712  13.329  21.600  0.00  0.00    -0.444 OA
BRANCH  30  31
ATOM     31  C   UNL     1      -5.669  11.985  21.115  0.00  0.00    +0.292 C 
BRANCH  31  33
ATOM     32  N   UNL     1      -6.713  12.153  18.877  0.00  0.00    -0.131 NA
ATOM     33  C   UNL     1      -5.597  11.973  19.642  0.00  0.00    +0.121 A 
ATOM     34  C   UNL     1      -4.511  11.799  18.816  0.00  0.00    +0.143 A 
ATOM     35  N   UNL     1      -5.016  11.890  17.540  0.00  0.00    -0.220 N 
ATOM     36  N   UNL     1      -6.352  12.102  17.603  0.00  0.00    -0.060 NA
BRANCH  35  37
ATOM     37  C   UNL     1      -4.331  11.785  16.302  0.00  0.00    +0.074 A 
ATOM     38  C   UNL     1      -4.111  12.938  15.526  0.00  0.00    +0.032 A 
ATOM     39  C   UNL     1      -3.445  12.856  14.296  0.00  0.00    +0.054 A 
ATOM     40  C   UNL     1      -2.995  11.624  13.826  0.00  0.00    +0.195 A 
ATOM     41  C   UNL     1      -3.215  10.485  14.600  0.00  0.00    +0.316 A 
ATOM     42  C   UNL     1      -3.873  10.546  15.837  0.00  0.00    +0.116 A 
BRANCH  41  43
ATOM     43  N   UNL     1      -2.769   9.187  14.135  0.00  0.00    +0.083 N 
ATOM     44  O   UNL     1      -3.593   8.263  14.140  0.00  0.00    +0.042 OA
ATOM     45  O   UNL     1      -1.566   9.081  13.855  0.00  0.00    -0.576 OA
ENDBRANCH  41  43
BRANCH  40  46
ATOM     46  O   UNL     1      -2.329  11.549  12.641  0.00  0.00    -0.501 OA
ATOM     47  H   UNL     1      -1.387  11.362  12.798  0.00  0.00    +0.292 HD
ENDBRANCH  40  46
ENDBRANCH  35  37
ENDBRANCH  31  33
ENDBRANCH  30  31
ENDBRANCH  26  30
ENDBRANCH  25  28
ENDBRANCH   1  25
TORSDOF 16
