REMARK VINA RESULT:    -4.230      2.551      5.934
REMARK INTER + INTRA:         -11.856
REMARK INTER:                  -7.338
REMARK INTRA:                  -4.518
REMARK UNBOUND:                -3.793
REMARK  Name = lig_assembled_21.pdb
REMARK  20 active torsions:
REMARK  status: ('A' for Active; 'I' for Inactive)
REMARK    1  A    between atoms: _2  and  _9
REMARK    2  A    between atoms: _4  and  _23
REMARK    3  A    between atoms: _6  and  _7
REMARK    4  A    between atoms: _6  and  _23
REMARK    5  A    between atoms: _9  and  _10
REMARK    6  A    between atoms: _11  and  _18
REMARK    7  A    between atoms: _12  and  _13
REMARK    8  A    between atoms: _12  and  _18
REMARK    9  A    between atoms: _19  and  _39
REMARK   10  A    between atoms: _21  and  _27
REMARK   11  A    between atoms: _22  and  _26
REMARK   12  A    between atoms: _26  and  _27
REMARK   13  A    between atoms: _29  and  _30
REMARK   14  A    between atoms: _31  and  _32
REMARK   15  A    between atoms: _33  and  _35
REMARK   16  A    between atoms: _35  and  _36
REMARK   17  A    between atoms: _35  and  _37
REMARK   18  A    between atoms: _37  and  _38
REMARK   19  A    between atoms: _37  and  _39
REMARK   20  A    between atoms: _40  and  _42
REMARK                            x       y       z     vdW  Elec       q    Type
REMARK                         _______ _______ _______ _____ _____    ______ ____
ROOT
ATOM      1  C   UNL     1      -2.016   9.163  27.760  0.00  0.00    +0.163 C 
ENDROOT
BRANCH   1   2
ATOM      2  O   UNL     1      -2.028   8.595  26.441  0.00  0.00    -0.388 OA
ATOM      3  H   UNL     1      -1.916   7.643  26.500  0.00  0.00    +0.210 HD
ENDBRANCH   1   2
BRANCH   1   4
ATOM      4  C   UNL     1      -3.225  10.091  27.971  0.00  0.00    +0.175 C 
BRANCH   4   5
ATOM      5  C   UNL     1      -4.209  10.034  26.793  0.00  0.00    +0.176 C 
ATOM      6  O   UNL     1      -3.969  11.196  25.953  0.00  0.00    -0.332 OA
ATOM      7  C   UNL     1      -4.751  11.255  24.714  0.00  0.00    +0.277 C 
ATOM      8  C   UNL     1      -6.263  11.137  25.023  0.00  0.00    +0.110 C 
ATOM      9  C   UNL     1      -6.565   9.933  25.940  0.00  0.00    +0.143 C 
ATOM     10  C   UNL     1      -5.694   9.969  27.197  0.00  0.00    +0.133 C 
BRANCH  10  11
ATOM     11  N   UNL     1      -5.928   8.773  28.020  0.00  0.00    -0.308 N 
ATOM     12  H   UNL     1      -5.819   7.869  27.581  0.00  0.00    +0.149 HD
ATOM     13  C   UNL     1      -6.275   8.802  29.310  0.00  0.00    +0.210 C 
ATOM     14  C   UNL     1      -6.458  10.194  29.943  0.00  0.00    +0.109 C 
ATOM     15  O   UNL     1      -6.450   7.783  29.979  0.00  0.00    -0.276 OA
ENDBRANCH  10  11
BRANCH   7  16
ATOM     16  C   UNL     1      -4.331  10.128  23.748  0.00  0.00    +0.414 C 
ATOM     17  O   UNL     1      -3.236   9.581  23.872  0.00  0.00    -0.240 OA
ATOM     18  O   UNL     1      -5.088   9.765  22.846  0.00  0.00    -0.240 OA
ENDBRANCH   7  16
BRANCH   9  19
ATOM     19  O   UNL     1      -7.941   9.950  26.320  0.00  0.00    -0.390 OA
ATOM     20  H   UNL     1      -8.145   9.156  26.821  0.00  0.00    +0.210 HD
ENDBRANCH   9  19
BRANCH   7  21
ATOM     21  O   UNL     1      -4.510  12.544  24.093  0.00  0.00    -0.343 OA
ATOM     22  C   UNL     1      -3.171  13.071  24.273  0.00  0.00    +0.198 C 
ENDBRANCH   7  21
ENDBRANCH   4   5
BRANCH   4  23
ATOM     23  O   UNL     1      -2.781  11.446  28.182  0.00  0.00    -0.387 OA
ATOM     24  H   UNL     1      -3.151  12.014  27.502  0.00  0.00    +0.210 HD
ENDBRANCH   4  23
ENDBRANCH   1   4
BRANCH   1  25
ATOM     25  C   UNL     1      -2.037   8.054  28.807  0.00  0.00    +0.141 C 
BRANCH  25  28
ATOM     26  C   UNL     1      -3.027   7.629  31.030  0.00  0.00    +0.401 C 
ATOM     27  O   UNL     1      -2.681   6.445  31.062  0.00  0.00    -0.226 OA
ATOM     28  N   UNL     1      -2.774   8.452  30.012  0.00  0.00    -0.279 N 
ATOM     29  H   UNL     1      -3.107   9.404  30.074  0.00  0.00    +0.152 HD
BRANCH  26  30
ATOM     30  O   UNL     1      -3.749   8.171  32.139  0.00  0.00    -0.444 OA
BRANCH  30  31
ATOM     31  C   UNL     1      -2.965   9.188  32.768  0.00  0.00    +0.292 C 
BRANCH  31  33
ATOM     32  N   UNL     1      -2.899  11.214  31.354  0.00  0.00    -0.131 NA
ATOM     33  C   UNL     1      -3.464  10.523  32.391  0.00  0.00    +0.120 A 
ATOM     34  C   UNL     1      -4.502  11.263  32.911  0.00  0.00    +0.137 A 
ATOM     35  N   UNL     1      -4.578  12.354  32.086  0.00  0.00    -0.247 N 
ATOM     36  N   UNL     1      -3.587  12.332  31.178  0.00  0.00    -0.065 NA
BRANCH  35  37
ATOM     37  C   UNL     1      -5.627  13.368  32.102  0.00  0.00    +0.184 C 
BRANCH  37  38
ATOM     38  C   UNL     1      -5.206  14.753  31.673  0.00  0.00    +0.016 A 
ATOM     39  C   UNL     1      -5.669  15.334  30.478  0.00  0.00    +0.137 A 
ATOM     40  C   UNL     1      -5.271  16.617  30.101  0.00  0.00    +0.047 A 
ATOM     41  C   UNL     1      -4.414  17.346  30.926  0.00  0.00    +0.004 A 
ATOM     42  C   UNL     1      -3.932  16.782  32.106  0.00  0.00    +0.001 A 
ATOM     43  C   UNL     1      -4.327  15.497  32.479  0.00  0.00    +0.009 A 
BRANCH  39  44
ATOM     44  O   UNL     1      -6.481  14.525  29.648  0.00  0.00    -0.426 OA
BRANCH  44  45
ATOM     45  C   UNL     1      -6.013  13.963  28.459  0.00  0.00    +0.309 C 
ATOM     46  O   UNL     1      -5.126  13.130  28.333  0.00  0.00    -0.251 OA
ATOM     47  C   UNL     1      -6.834  14.487  27.317  0.00  0.00    +0.136 C 
ENDBRANCH  44  45
ENDBRANCH  39  44
ENDBRANCH  37  38
ENDBRANCH  35  37
ENDBRANCH  31  33
ENDBRANCH  30  31
ENDBRANCH  26  30
ENDBRANCH  25  28
ENDBRANCH   1  25
TORSDOF 17
