REMARK VINA RESULT:    -4.733      2.573      6.537
REMARK INTER + INTRA:         -11.338
REMARK INTER:                  -6.186
REMARK INTRA:                  -5.152
REMARK UNBOUND:                -2.869
REMARK  Name = lig_assembled_71.pdb
REMARK  17 active torsions:
REMARK  status: ('A' for Active; 'I' for Inactive)
REMARK    1  A    between atoms: _2  and  _12
REMARK    2  A    between atoms: _7  and  _22
REMARK    3  A    between atoms: _9  and  _10
REMARK    4  A    between atoms: _9  and  _22
REMARK    5  A    between atoms: _12  and  _13
REMARK    6  A    between atoms: _18  and  _38
REMARK    7  A    between atoms: _20  and  _26
REMARK    8  A    between atoms: _21  and  _25
REMARK    9  A    between atoms: _25  and  _26
REMARK   10  A    between atoms: _28  and  _29
REMARK   11  A    between atoms: _30  and  _31
REMARK   12  A    between atoms: _32  and  _34
REMARK   13  A    between atoms: _34  and  _35
REMARK   14  A    between atoms: _34  and  _36
REMARK   15  A    between atoms: _36  and  _37
REMARK   16  A    between atoms: _36  and  _38
REMARK   17  A    between atoms: _39  and  _41
REMARK                            x       y       z     vdW  Elec       q    Type
REMARK                         _______ _______ _______ _____ _____    ______ ____
ROOT
ATOM      1  C   UNL     1      -6.109  13.041  27.852  0.00  0.00    +0.163 C 
ENDROOT
BRANCH   1   2
ATOM      2  O   UNL     1      -6.204  14.216  27.031  0.00  0.00    -0.388 OA
ATOM      3  H   UNL     1      -6.938  14.759  27.331  0.00  0.00    +0.210 HD
ENDBRANCH   1   2
BRANCH   1   4
ATOM      4  C   UNL     1      -5.910  13.438  29.310  0.00  0.00    +0.141 C 
BRANCH   4   7
ATOM      5  C   UNL     1      -4.198  13.177  31.074  0.00  0.00    +0.401 C 
ATOM      6  O   UNL     1      -4.930  13.590  31.976  0.00  0.00    -0.226 OA
ATOM      7  N   UNL     1      -4.572  13.078  29.797  0.00  0.00    -0.279 N 
ATOM      8  H   UNL     1      -3.897  12.737  29.128  0.00  0.00    +0.152 HD
BRANCH   5   9
ATOM      9  O   UNL     1      -2.862  12.777  31.391  0.00  0.00    -0.444 OA
BRANCH   9  10
ATOM     10  C   UNL     1      -2.895  11.600  32.202  0.00  0.00    +0.292 C 
BRANCH  10  12
ATOM     11  N   UNL     1      -2.914  10.241  30.124  0.00  0.00    -0.131 NA
ATOM     12  C   UNL     1      -3.350  10.443  31.408  0.00  0.00    +0.120 A 
ATOM     13  C   UNL     1      -4.211   9.427  31.752  0.00  0.00    +0.137 A 
ATOM     14  N   UNL     1      -4.273   8.648  30.634  0.00  0.00    -0.242 N 
ATOM     15  N   UNL     1      -3.479   9.133  29.661  0.00  0.00    -0.065 NA
BRANCH  14  16
ATOM     16  C   UNL     1      -4.958   7.384  30.448  0.00  0.00    +0.241 C 
BRANCH  16  17
ATOM     17  C   UNL     1      -5.112   7.041  28.989  0.00  0.00    +0.241 C 
ATOM     18  O   UNL     1      -4.480   6.103  28.507  0.00  0.00    -0.273 OA
ATOM     19  N   UNL     1      -5.929   7.898  28.283  0.00  0.00    -0.253 N 
ATOM     20  H   UNL     1      -6.262   8.766  28.672  0.00  0.00    +0.158 HD
ATOM     21  C   UNL     1      -6.225   7.750  26.932  0.00  0.00    +0.221 A 
ATOM     22  N   UNL     1      -6.788   8.818  26.347  0.00  0.00    -0.223 NA
ATOM     23  C   UNL     1      -7.013   8.718  25.019  0.00  0.00    +0.116 A 
ATOM     24  C   UNL     1      -6.727   7.598  24.277  0.00  0.00    +0.039 A 
ATOM     25  C   UNL     1      -6.199   6.549  24.982  0.00  0.00    +0.116 A 
ATOM     26  N   UNL     1      -5.943   6.608  26.298  0.00  0.00    -0.223 NA
ENDBRANCH  16  17
ENDBRANCH  14  16
ENDBRANCH  10  12
ENDBRANCH   9  10
ENDBRANCH   5   9
ENDBRANCH   4   7
ENDBRANCH   1   4
BRANCH   1  27
ATOM     27  C   UNL     1      -4.943  12.146  27.398  0.00  0.00    +0.175 C 
BRANCH  27  28
ATOM     28  C   UNL     1      -4.752  12.173  25.874  0.00  0.00    +0.176 C 
ATOM     29  O   UNL     1      -6.069  12.207  25.259  0.00  0.00    -0.332 OA
ATOM     30  C   UNL     1      -6.084  12.343  23.800  0.00  0.00    +0.277 C 
ATOM     31  C   UNL     1      -5.229  11.232  23.144  0.00  0.00    +0.110 C 
ATOM     32  C   UNL     1      -3.829  11.136  23.787  0.00  0.00    +0.143 C 
ATOM     33  C   UNL     1      -3.932  11.000  25.307  0.00  0.00    +0.133 C 
BRANCH  33  34
ATOM     34  N   UNL     1      -2.592  10.997  25.915  0.00  0.00    -0.308 N 
ATOM     35  H   UNL     1      -2.087  11.872  25.949  0.00  0.00    +0.149 HD
ATOM     36  C   UNL     1      -2.000   9.915  26.426  0.00  0.00    +0.210 C 
ATOM     37  C   UNL     1      -2.784   8.592  26.336  0.00  0.00    +0.109 C 
ATOM     38  O   UNL     1      -0.882   9.945  26.943  0.00  0.00    -0.276 OA
ENDBRANCH  33  34
BRANCH  30  39
ATOM     39  C   UNL     1      -5.547  13.726  23.374  0.00  0.00    +0.414 C 
ATOM     40  O   UNL     1      -5.800  14.724  24.048  0.00  0.00    -0.240 OA
ATOM     41  O   UNL     1      -4.861  13.843  22.357  0.00  0.00    -0.240 OA
ENDBRANCH  30  39
BRANCH  30  42
ATOM     42  O   UNL     1      -7.454  12.192  23.348  0.00  0.00    -0.343 OA
ATOM     43  C   UNL     1      -8.448  12.169  24.405  0.00  0.00    +0.198 C 
ENDBRANCH  30  42
BRANCH  32  44
ATOM     44  O   UNL     1      -3.133  10.006  23.260  0.00  0.00    -0.390 OA
ATOM     45  H   UNL     1      -2.585   9.618  23.946  0.00  0.00    +0.210 HD
ENDBRANCH  32  44
ENDBRANCH  27  28
BRANCH  27  46
ATOM     46  O   UNL     1      -5.152  10.792  27.848  0.00  0.00    -0.387 OA
ATOM     47  H   UNL     1      -4.314  10.322  27.849  0.00  0.00    +0.210 HD
ENDBRANCH  27  46
ENDBRANCH   1  27
TORSDOF 15
