REMARK VINA RESULT:    -4.646      2.383      3.978
REMARK INTER + INTRA:         -12.708
REMARK INTER:                  -9.679
REMARK INTRA:                  -3.029
REMARK UNBOUND:                -3.581
REMARK  Name = lig_assembled_31.pdb
REMARK  20 active torsions:
REMARK  status: ('A' for Active; 'I' for Inactive)
REMARK    1  A    between atoms: _2  and  _11
REMARK    2  A    between atoms: _3  and  _12
REMARK    3  A    between atoms: _4  and  _14
REMARK    4  A    between atoms: _6  and  _24
REMARK    5  A    between atoms: _8  and  _9
REMARK    6  A    between atoms: _8  and  _24
REMARK    7  A    between atoms: _11  and  _12
REMARK    8  A    between atoms: _14  and  _15
REMARK    9  A    between atoms: _20  and  _40
REMARK   10  A    between atoms: _22  and  _28
REMARK   11  A    between atoms: _23  and  _27
REMARK   12  A    between atoms: _27  and  _28
REMARK   13  A    between atoms: _30  and  _31
REMARK   14  A    between atoms: _32  and  _33
REMARK   15  A    between atoms: _34  and  _36
REMARK   16  A    between atoms: _36  and  _37
REMARK   17  A    between atoms: _36  and  _38
REMARK   18  A    between atoms: _38  and  _39
REMARK   19  A    between atoms: _38  and  _40
REMARK   20  A    between atoms: _41  and  _43
REMARK                            x       y       z     vdW  Elec       q    Type
REMARK                         _______ _______ _______ _____ _____    ______ ____
ROOT
ATOM      1  C   UNL     1      -2.031   9.500  26.537  0.00  0.00    +0.401 C 
ATOM      2  O   UNL     1      -0.974  10.111  26.363  0.00  0.00    -0.226 OA
ATOM      3  N   UNL     1      -3.192  10.087  26.829  0.00  0.00    -0.279 N 
ATOM      4  H   UNL     1      -4.007   9.501  26.944  0.00  0.00    +0.152 HD
ENDROOT
BRANCH   1   5
ATOM      5  O   UNL     1      -2.036   8.075  26.420  0.00  0.00    -0.444 OA
BRANCH   5   6
ATOM      6  C   UNL     1      -3.291   7.562  26.876  0.00  0.00    +0.292 C 
BRANCH   6   8
ATOM      7  N   UNL     1      -1.947   6.865  28.834  0.00  0.00    -0.131 NA
ATOM      8  C   UNL     1      -3.174   7.072  28.264  0.00  0.00    +0.120 A 
ATOM      9  C   UNL     1      -4.154   6.755  29.178  0.00  0.00    +0.137 A 
ATOM     10  N   UNL     1      -3.457   6.353  30.278  0.00  0.00    -0.250 N 
ATOM     11  N   UNL     1      -2.132   6.425  30.072  0.00  0.00    -0.065 NA
BRANCH  10  12
ATOM     12  C   UNL     1      -3.979   5.888  31.547  0.00  0.00    +0.164 C 
BRANCH  12  13
ATOM     13  C   UNL     1      -4.214   7.043  32.507  0.00  0.00    +0.129 C 
BRANCH  13  14
ATOM     14  N   UNL     1      -3.294   8.162  32.351  0.00  0.00    -0.298 N 
ATOM     15  H   UNL     1      -2.308   8.002  32.203  0.00  0.00    +0.150 HD
ATOM     16  C   UNL     1      -3.678   9.390  32.822  0.00  0.00    +0.300 C 
ATOM     17  O   UNL     1      -4.799   9.606  33.277  0.00  0.00    -0.253 OA
ATOM     18  N   UNL     1      -2.725  10.355  32.717  0.00  0.00    -0.292 N 
ATOM     19  H   UNL     1      -1.791  10.167  32.382  0.00  0.00    +0.151 HD
BRANCH  18  20
ATOM     20  C   UNL     1      -3.036  11.687  33.182  0.00  0.00    +0.180 C 
BRANCH  20  21
ATOM     21  C   UNL     1      -3.278  12.653  32.080  0.00  0.00    +0.122 A 
ATOM     22  O   UNL     1      -4.330  12.443  31.232  0.00  0.00    -0.466 OA
ATOM     23  C   UNL     1      -4.317  13.466  30.332  0.00  0.00    +0.195 A 
ATOM     24  C   UNL     1      -3.274  14.326  30.586  0.00  0.00    +0.041 A 
ATOM     25  C   UNL     1      -2.602  13.802  31.714  0.00  0.00    +0.046 A 
ENDBRANCH  20  21
ENDBRANCH  18  20
ENDBRANCH  13  14
ENDBRANCH  12  13
ENDBRANCH  10  12
ENDBRANCH   6   8
ENDBRANCH   5   6
ENDBRANCH   1   5
BRANCH   3  26
ATOM     26  C   UNL     1      -3.353  11.537  26.993  0.00  0.00    +0.141 C 
BRANCH  26  27
ATOM     27  C   UNL     1      -4.267  12.131  25.927  0.00  0.00    +0.163 C 
BRANCH  27  28
ATOM     28  O   UNL     1      -5.305  12.908  26.547  0.00  0.00    -0.388 OA
ATOM     29  H   UNL     1      -5.491  12.556  27.420  0.00  0.00    +0.210 HD
ENDBRANCH  27  28
BRANCH  27  30
ATOM     30  C   UNL     1      -3.436  12.994  24.962  0.00  0.00    +0.175 C 
BRANCH  30  31
ATOM     31  C   UNL     1      -4.248  13.435  23.735  0.00  0.00    +0.176 C 
ATOM     32  O   UNL     1      -5.234  14.408  24.178  0.00  0.00    -0.332 OA
ATOM     33  C   UNL     1      -6.038  15.023  23.117  0.00  0.00    +0.277 C 
ATOM     34  C   UNL     1      -6.727  13.934  22.260  0.00  0.00    +0.110 C 
ATOM     35  C   UNL     1      -5.723  12.858  21.792  0.00  0.00    +0.143 C 
ATOM     36  C   UNL     1      -4.939  12.288  22.974  0.00  0.00    +0.133 C 
BRANCH  36  37
ATOM     37  N   UNL     1      -3.927  11.328  22.506  0.00  0.00    -0.308 N 
ATOM     38  H   UNL     1      -3.149  11.687  21.970  0.00  0.00    +0.149 HD
ATOM     39  C   UNL     1      -3.969  10.015  22.744  0.00  0.00    +0.210 C 
ATOM     40  C   UNL     1      -5.180   9.496  23.542  0.00  0.00    +0.109 C 
ATOM     41  O   UNL     1      -3.098   9.236  22.352  0.00  0.00    -0.276 OA
ENDBRANCH  36  37
BRANCH  33  42
ATOM     42  C   UNL     1      -5.161  15.914  22.213  0.00  0.00    +0.414 C 
ATOM     43  O   UNL     1      -3.936  15.892  22.322  0.00  0.00    -0.240 OA
ATOM     44  O   UNL     1      -5.678  16.653  21.375  0.00  0.00    -0.240 OA
ENDBRANCH  33  42
BRANCH  35  45
ATOM     45  O   UNL     1      -6.423  11.800  21.136  0.00  0.00    -0.390 OA
ATOM     46  H   UNL     1      -6.924  12.155  20.399  0.00  0.00    +0.210 HD
ENDBRANCH  35  45
BRANCH  33  47
ATOM     47  O   UNL     1      -7.068  15.829  23.746  0.00  0.00    -0.343 OA
ATOM     48  C   UNL     1      -6.611  16.658  24.844  0.00  0.00    +0.198 C 
ENDBRANCH  33  47
ENDBRANCH  30  31
BRANCH  30  49
ATOM     49  O   UNL     1      -2.256  12.278  24.545  0.00  0.00    -0.387 OA
ATOM     50  H   UNL     1      -1.525  12.498  25.127  0.00  0.00    +0.210 HD
ENDBRANCH  30  49
ENDBRANCH  27  30
ENDBRANCH  26  27
ENDBRANCH   3  26
TORSDOF 18
