REMARK VINA RESULT:    -5.099      2.248      4.608
REMARK INTER + INTRA:         -13.319
REMARK INTER:                 -10.073
REMARK INTRA:                  -3.246
REMARK UNBOUND:                -3.302
REMARK  Name = lig_assembled_84.pdb
REMARK  21 active torsions:
REMARK  status: ('A' for Active; 'I' for Inactive)
REMARK    1  A    between atoms: _2  and  _11
REMARK    2  A    between atoms: _3  and  _14
REMARK    3  A    between atoms: _4  and  _17
REMARK    4  A    between atoms: _6  and  _28
REMARK    5  A    between atoms: _8  and  _9
REMARK    6  A    between atoms: _8  and  _28
REMARK    7  A    between atoms: _11  and  _12
REMARK    8  A    between atoms: _12  and  _13
REMARK    9  A    between atoms: _12  and  _14
REMARK   10  A    between atoms: _24  and  _44
REMARK   11  A    between atoms: _26  and  _32
REMARK   12  A    between atoms: _27  and  _31
REMARK   13  A    between atoms: _31  and  _32
REMARK   14  A    between atoms: _34  and  _35
REMARK   15  A    between atoms: _36  and  _37
REMARK   16  A    between atoms: _38  and  _40
REMARK   17  A    between atoms: _40  and  _41
REMARK   18  A    between atoms: _40  and  _42
REMARK   19  A    between atoms: _42  and  _43
REMARK   20  A    between atoms: _42  and  _44
REMARK   21  A    between atoms: _45  and  _47
REMARK                            x       y       z     vdW  Elec       q    Type
REMARK                         _______ _______ _______ _____ _____    ______ ____
ROOT
ATOM      1  C   UNL     1      -2.849  11.963  24.130  0.00  0.00    +0.401 C 
ATOM      2  O   UNL     1      -3.348  10.984  23.569  0.00  0.00    -0.226 OA
ATOM      3  N   UNL     1      -3.031  13.223  23.733  0.00  0.00    -0.279 N 
ATOM      4  H   UNL     1      -2.588  13.959  24.265  0.00  0.00    +0.152 HD
ENDROOT
BRANCH   1   5
ATOM      5  O   UNL     1      -2.026  11.758  25.281  0.00  0.00    -0.444 OA
BRANCH   5   6
ATOM      6  C   UNL     1      -2.852  11.576  26.434  0.00  0.00    +0.292 C 
BRANCH   6   8
ATOM      7  N   UNL     1      -1.674   9.402  26.606  0.00  0.00    -0.131 NA
ATOM      8  C   UNL     1      -2.442  10.377  27.188  0.00  0.00    +0.120 A 
ATOM      9  C   UNL     1      -2.739  10.003  28.480  0.00  0.00    +0.137 A 
ATOM     10  N   UNL     1      -2.183   8.765  28.600  0.00  0.00    -0.251 N 
ATOM     11  N   UNL     1      -1.523   8.416  27.481  0.00  0.00    -0.065 NA
BRANCH  10  12
ATOM     12  C   UNL     1      -2.354   7.817  29.683  0.00  0.00    +0.149 C 
BRANCH  12  13
ATOM     13  C   UNL     1      -3.654   7.999  30.485  0.00  0.00    +0.021 C 
ATOM     14  C   UNL     1      -4.553   6.758  30.378  0.00  0.00    +0.010 C 
BRANCH  13  15
ATOM     15  C   UNL     1      -3.358   8.272  31.980  0.00  0.00    +0.089 C 
BRANCH  15  16
ATOM     16  N   UNL     1      -3.673   9.627  32.453  0.00  0.00    -0.299 NA
ATOM     17  C   UNL     1      -4.938  10.102  31.831  0.00  0.00    +0.103 C 
ATOM     18  C   UNL     1      -5.352  11.488  32.366  0.00  0.00    +0.120 C 
ATOM     19  N   UNL     1      -4.280  12.457  32.109  0.00  0.00    -0.327 N 
ATOM     20  C   UNL     1      -2.966  12.059  32.634  0.00  0.00    +0.120 C 
ATOM     21  C   UNL     1      -2.611  10.621  32.153  0.00  0.00    +0.103 C 
BRANCH  19  22
ATOM     22  C   UNL     1      -4.502  13.660  31.479  0.00  0.00    +0.030 A 
ATOM     23  C   UNL     1      -3.694  14.782  31.741  0.00  0.00    +0.024 A 
ATOM     24  C   UNL     1      -3.921  16.020  31.129  0.00  0.00    +0.022 A 
ATOM     25  C   UNL     1      -4.965  16.159  30.230  0.00  0.00    +0.041 A 
ATOM     26 CL   UNL     1      -5.253  17.680  29.478  0.00  0.00    -0.084 Cl
ATOM     27  C   UNL     1      -5.785  15.074  29.942  0.00  0.00    +0.022 A 
ATOM     28  C   UNL     1      -5.551  13.841  30.566  0.00  0.00    +0.024 A 
ENDBRANCH  19  22
ENDBRANCH  15  16
ENDBRANCH  13  15
ENDBRANCH  12  13
ENDBRANCH  10  12
ENDBRANCH   6   8
ENDBRANCH   5   6
ENDBRANCH   1   5
BRANCH   3  29
ATOM     29  C   UNL     1      -3.839  13.601  22.567  0.00  0.00    +0.141 C 
BRANCH  29  30
ATOM     30  C   UNL     1      -4.997  14.516  22.951  0.00  0.00    +0.163 C 
BRANCH  30  31
ATOM     31  O   UNL     1      -4.817  15.812  22.356  0.00  0.00    -0.388 OA
ATOM     32  H   UNL     1      -5.392  16.447  22.790  0.00  0.00    +0.210 HD
ENDBRANCH  30  31
BRANCH  30  33
ATOM     33  C   UNL     1      -6.324  13.883  22.499  0.00  0.00    +0.175 C 
BRANCH  33  34
ATOM     34  C   UNL     1      -6.170  12.392  22.166  0.00  0.00    +0.176 C 
ATOM     35  O   UNL     1      -6.696  12.175  20.828  0.00  0.00    -0.332 OA
ATOM     36  C   UNL     1      -6.535  10.818  20.296  0.00  0.00    +0.277 C 
ATOM     37  C   UNL     1      -7.140   9.779  21.271  0.00  0.00    +0.110 C 
ATOM     38  C   UNL     1      -6.635   9.990  22.714  0.00  0.00    +0.143 C 
ATOM     39  C   UNL     1      -6.848  11.435  23.165  0.00  0.00    +0.133 C 
BRANCH  39  40
ATOM     40  N   UNL     1      -6.284  11.645  24.507  0.00  0.00    -0.308 N 
ATOM     41  H   UNL     1      -5.291  11.500  24.630  0.00  0.00    +0.149 HD
ATOM     42  C   UNL     1      -6.997  12.013  25.575  0.00  0.00    +0.210 C 
ATOM     43  C   UNL     1      -8.511  12.200  25.361  0.00  0.00    +0.109 C 
ATOM     44  O   UNL     1      -6.495  12.196  26.684  0.00  0.00    -0.276 OA
ENDBRANCH  39  40
BRANCH  36  45
ATOM     45  C   UNL     1      -5.045  10.497  20.060  0.00  0.00    +0.414 C 
ATOM     46  O   UNL     1      -4.650   9.332  20.089  0.00  0.00    -0.240 OA
ATOM     47  O   UNL     1      -4.238  11.401  19.840  0.00  0.00    -0.240 OA
ENDBRANCH  36  45
BRANCH  36  48
ATOM     48  O   UNL     1      -7.256  10.741  19.039  0.00  0.00    -0.343 OA
ATOM     49  C   UNL     1      -7.903  11.972  18.628  0.00  0.00    +0.198 C 
ENDBRANCH  36  48
BRANCH  38  50
ATOM     50  O   UNL     1      -7.330   9.112  23.601  0.00  0.00    -0.390 OA
ATOM     51  H   UNL     1      -7.835   8.475  23.091  0.00  0.00    +0.210 HD
ENDBRANCH  38  50
ENDBRANCH  33  34
BRANCH  33  52
ATOM     52  O   UNL     1      -6.852  14.593  21.361  0.00  0.00    -0.387 OA
ATOM     53  H   UNL     1      -6.676  15.532  21.460  0.00  0.00    +0.210 HD
ENDBRANCH  33  52
ENDBRANCH  30  33
ENDBRANCH  29  30
ENDBRANCH   3  29
TORSDOF 18
