REMARK VINA RESULT:    -4.214      2.481      3.486
REMARK INTER + INTRA:         -11.081
REMARK INTER:                  -7.112
REMARK INTRA:                  -3.969
REMARK UNBOUND:                -3.048
REMARK  Name = lig_assembled_50.pdb
REMARK  20 active torsions:
REMARK  status: ('A' for Active; 'I' for Inactive)
REMARK    1  A    between atoms: _2  and  _9
REMARK    2  A    between atoms: _4  and  _17
REMARK    3  A    between atoms: _5  and  _10
REMARK    4  A    between atoms: _5  and  _11
REMARK    5  A    between atoms: _6  and  _7
REMARK    6  A    between atoms: _6  and  _17
REMARK    7  A    between atoms: _9  and  _10
REMARK    8  A    between atoms: _10  and  _12
REMARK    9  A    between atoms: _13  and  _33
REMARK   10  A    between atoms: _15  and  _21
REMARK   11  A    between atoms: _16  and  _20
REMARK   12  A    between atoms: _20  and  _21
REMARK   13  A    between atoms: _23  and  _24
REMARK   14  A    between atoms: _25  and  _26
REMARK   15  A    between atoms: _27  and  _29
REMARK   16  A    between atoms: _29  and  _30
REMARK   17  A    between atoms: _29  and  _31
REMARK   18  A    between atoms: _31  and  _32
REMARK   19  A    between atoms: _31  and  _33
REMARK   20  A    between atoms: _34  and  _36
REMARK                            x       y       z     vdW  Elec       q    Type
REMARK                         _______ _______ _______ _____ _____    ______ ____
ROOT
ATOM      1  C   UNL     1      -4.122  11.491  22.339  0.00  0.00    +0.163 C 
ENDROOT
BRANCH   1   2
ATOM      2  O   UNL     1      -3.857  10.259  21.647  0.00  0.00    -0.388 OA
ATOM      3  H   UNL     1      -4.678   9.777  21.525  0.00  0.00    +0.210 HD
ENDBRANCH   1   2
BRANCH   1   4
ATOM      4  C   UNL     1      -3.005  11.806  23.348  0.00  0.00    +0.175 C 
BRANCH   4   5
ATOM      5  C   UNL     1      -3.305  11.233  24.741  0.00  0.00    +0.176 C 
ATOM      6  O   UNL     1      -3.088   9.796  24.688  0.00  0.00    -0.332 OA
ATOM      7  C   UNL     1      -3.226   9.087  25.964  0.00  0.00    +0.277 C 
ATOM      8  C   UNL     1      -4.605   9.385  26.603  0.00  0.00    +0.110 C 
ATOM      9  C   UNL     1      -4.894  10.901  26.651  0.00  0.00    +0.143 C 
ATOM     10  C   UNL     1      -4.718  11.537  25.272  0.00  0.00    +0.133 C 
BRANCH  10  11
ATOM     11  N   UNL     1      -4.911  12.994  25.348  0.00  0.00    -0.308 N 
ATOM     12  H   UNL     1      -4.211  13.537  25.833  0.00  0.00    +0.149 HD
ATOM     13  C   UNL     1      -5.951  13.644  24.819  0.00  0.00    +0.210 C 
ATOM     14  C   UNL     1      -7.014  12.784  24.110  0.00  0.00    +0.109 C 
ATOM     15  O   UNL     1      -6.079  14.867  24.886  0.00  0.00    -0.276 OA
ENDBRANCH  10  11
BRANCH   7  16
ATOM     16  C   UNL     1      -2.106   9.497  26.942  0.00  0.00    +0.414 C 
ATOM     17  O   UNL     1      -0.973   9.733  26.523  0.00  0.00    -0.240 OA
ATOM     18  O   UNL     1      -2.334   9.593  28.148  0.00  0.00    -0.240 OA
ENDBRANCH   7  16
BRANCH   9  19
ATOM     19  O   UNL     1      -6.230  11.122  27.104  0.00  0.00    -0.390 OA
ATOM     20  H   UNL     1      -6.466  12.042  26.969  0.00  0.00    +0.210 HD
ENDBRANCH   9  19
BRANCH   7  21
ATOM     21  O   UNL     1      -3.145   7.663  25.698  0.00  0.00    -0.343 OA
ATOM     22  C   UNL     1      -3.932   6.828  26.584  0.00  0.00    +0.198 C 
ENDBRANCH   7  21
ENDBRANCH   4   5
BRANCH   4  23
ATOM     23  O   UNL     1      -2.799  13.231  23.432  0.00  0.00    -0.387 OA
ATOM     24  H   UNL     1      -3.435  13.680  22.871  0.00  0.00    +0.210 HD
ENDBRANCH   4  23
ENDBRANCH   1   4
BRANCH   1  25
ATOM     25  C   UNL     1      -4.243  12.636  21.338  0.00  0.00    +0.141 C 
BRANCH  25  28
ATOM     26  C   UNL     1      -5.783  12.358  19.426  0.00  0.00    +0.401 C 
ATOM     27  O   UNL     1      -6.714  12.958  19.967  0.00  0.00    -0.226 OA
ATOM     28  N   UNL     1      -4.595  12.155  19.996  0.00  0.00    -0.279 N 
ATOM     29  H   UNL     1      -3.897  11.642  19.476  0.00  0.00    +0.152 HD
BRANCH  26  30
ATOM     30  O   UNL     1      -5.967  11.834  18.108  0.00  0.00    -0.444 OA
BRANCH  30  31
ATOM     31  C   UNL     1      -7.000  10.846  18.127  0.00  0.00    +0.292 C 
BRANCH  31  33
ATOM     32  N   UNL     1      -5.349   9.220  19.009  0.00  0.00    -0.131 NA
ATOM     33  C   UNL     1      -6.626   9.725  19.012  0.00  0.00    +0.120 A 
ATOM     34  C   UNL     1      -7.381   9.031  19.935  0.00  0.00    +0.137 A 
ATOM     35  N   UNL     1      -6.514   8.120  20.448  0.00  0.00    -0.249 N 
ATOM     36  N   UNL     1      -5.289   8.246  19.903  0.00  0.00    -0.065 NA
BRANCH  35  37
ATOM     37  C   UNL     1      -6.766   7.100  21.440  0.00  0.00    +0.178 C 
BRANCH  37  38
ATOM     38  C   UNL     1      -7.232   7.647  22.794  0.00  0.00    +0.161 C 
BRANCH  38  39
ATOM     39  O   UNL     1      -8.066   6.726  23.503  0.00  0.00    -0.388 OA
ATOM     40  H   UNL     1      -7.830   5.817  23.228  0.00  0.00    +0.210 HD
ENDBRANCH  38  39
BRANCH  38  41
ATOM     41  C   UNL     1      -6.082   8.107  23.700  0.00  0.00    +0.189 C 
BRANCH  41  42
ATOM     42  O   UNL     1      -4.814   7.884  23.084  0.00  0.00    -0.392 OA
ATOM     43  H   UNL     1      -4.843   8.261  22.184  0.00  0.00    +0.210 HD
ENDBRANCH  41  42
ENDBRANCH  38  41
ENDBRANCH  37  38
ENDBRANCH  35  37
ENDBRANCH  31  33
ENDBRANCH  30  31
ENDBRANCH  26  30
ENDBRANCH  25  28
ENDBRANCH   1  25
TORSDOF 18
