REMARK VINA RESULT:    -5.013      4.832     10.596
REMARK INTER + INTRA:         -11.862
REMARK INTER:                  -8.710
REMARK INTRA:                  -3.151
REMARK UNBOUND:                -2.453
REMARK  Name = lig_assembled_75.pdb
REMARK  19 active torsions:
REMARK  status: ('A' for Active; 'I' for Inactive)
REMARK    1  A    between atoms: _2  and  _9
REMARK    2  A    between atoms: _4  and  _23
REMARK    3  A    between atoms: _6  and  _7
REMARK    4  A    between atoms: _6  and  _23
REMARK    5  A    between atoms: _11  and  _12
REMARK    6  A    between atoms: _13  and  _14
REMARK    7  A    between atoms: _14  and  _17
REMARK    8  A    between atoms: _19  and  _39
REMARK    9  A    between atoms: _21  and  _27
REMARK   10  A    between atoms: _22  and  _26
REMARK   11  A    between atoms: _26  and  _27
REMARK   12  A    between atoms: _29  and  _30
REMARK   13  A    between atoms: _31  and  _32
REMARK   14  A    between atoms: _33  and  _35
REMARK   15  A    between atoms: _35  and  _36
REMARK   16  A    between atoms: _35  and  _37
REMARK   17  A    between atoms: _37  and  _38
REMARK   18  A    between atoms: _37  and  _39
REMARK   19  A    between atoms: _40  and  _42
REMARK                            x       y       z     vdW  Elec       q    Type
REMARK                         _______ _______ _______ _____ _____    ______ ____
ROOT
ATOM      1  C   UNL     1      -3.692  10.684  29.118  0.00  0.00    +0.141 C 
ENDROOT
BRANCH   1   4
ATOM      2  C   UNL     1      -2.967  10.975  31.462  0.00  0.00    +0.401 C 
ATOM      3  O   UNL     1      -3.686  10.072  31.896  0.00  0.00    -0.226 OA
ATOM      4  N   UNL     1      -2.912  11.333  30.179  0.00  0.00    -0.279 N 
ATOM      5  H   UNL     1      -2.298  12.093  29.922  0.00  0.00    +0.152 HD
BRANCH   2   6
ATOM      6  O   UNL     1      -2.137  11.699  32.374  0.00  0.00    -0.444 OA
BRANCH   6   7
ATOM      7  C   UNL     1      -2.957  12.445  33.277  0.00  0.00    +0.292 C 
BRANCH   7   9
ATOM      8  N   UNL     1      -2.477  14.870  33.189  0.00  0.00    -0.131 NA
ATOM      9  C   UNL     1      -3.202  13.800  32.749  0.00  0.00    +0.121 A 
ATOM     10  C   UNL     1      -4.112  14.228  31.810  0.00  0.00    +0.143 A 
ATOM     11  N   UNL     1      -3.907  15.584  31.706  0.00  0.00    -0.220 N 
ATOM     12  N   UNL     1      -2.912  15.950  32.554  0.00  0.00    -0.060 NA
BRANCH  11  13
ATOM     13  C   UNL     1      -4.591  16.530  30.901  0.00  0.00    +0.068 A 
ATOM     14  C   UNL     1      -5.391  16.078  29.837  0.00  0.00    +0.035 A 
ATOM     15  C   UNL     1      -6.028  16.988  28.981  0.00  0.00    -0.023 A 
ATOM     16  C   UNL     1      -5.907  18.357  29.245  0.00  0.00    +0.008 A 
ATOM     17  C   UNL     1      -5.132  18.812  30.315  0.00  0.00    +0.003 A 
ATOM     18  C   UNL     1      -4.468  17.903  31.138  0.00  0.00    +0.028 A 
BRANCH  15  19
ATOM     19  C   UNL     1      -6.835  16.556  27.829  0.00  0.00    +0.015 C 
ATOM     20  C   UNL     1      -6.775  15.325  27.295  0.00  0.00    +0.092 C 
BRANCH  20  21
ATOM     21  C   UNL     1      -7.586  15.005  26.106  0.00  0.00    +0.330 C 
ATOM     22  O   UNL     1      -8.485  15.702  25.669  0.00  0.00    -0.246 OA
BRANCH  21  23
ATOM     23  O   UNL     1      -7.209  13.842  25.537  0.00  0.00    -0.478 OA
ATOM     24  H   UNL     1      -7.283  13.803  24.567  0.00  0.00    +0.295 HD
ENDBRANCH  21  23
ENDBRANCH  20  21
ENDBRANCH  15  19
ENDBRANCH  11  13
ENDBRANCH   7   9
ENDBRANCH   6   7
ENDBRANCH   2   6
ENDBRANCH   1   4
BRANCH   1  25
ATOM     25  C   UNL     1      -4.032  11.652  27.990  0.00  0.00    +0.163 C 
BRANCH  25  26
ATOM     26  O   UNL     1      -2.835  12.035  27.293  0.00  0.00    -0.388 OA
ATOM     27  H   UNL     1      -2.111  11.465  27.562  0.00  0.00    +0.210 HD
ENDBRANCH  25  26
BRANCH  25  28
ATOM     28  C   UNL     1      -5.039  10.991  27.032  0.00  0.00    +0.175 C 
BRANCH  28  29
ATOM     29  C   UNL     1      -4.623  11.144  25.561  0.00  0.00    +0.176 C 
ATOM     30  O   UNL     1      -5.765  11.662  24.825  0.00  0.00    -0.332 OA
ATOM     31  C   UNL     1      -5.522  11.973  23.414  0.00  0.00    +0.277 C 
ATOM     32  C   UNL     1      -4.941  10.740  22.679  0.00  0.00    +0.110 C 
ATOM     33  C   UNL     1      -3.743  10.135  23.442  0.00  0.00    +0.143 C 
ATOM     34  C   UNL     1      -4.106   9.853  24.900  0.00  0.00    +0.133 C 
BRANCH  34  35
ATOM     35  N   UNL     1      -2.933   9.359  25.637  0.00  0.00    -0.308 N 
ATOM     36  H   UNL     1      -2.111   9.947  25.665  0.00  0.00    +0.149 HD
ATOM     37  C   UNL     1      -2.882   8.185  26.271  0.00  0.00    +0.210 C 
ATOM     38  C   UNL     1      -4.141   7.301  26.188  0.00  0.00    +0.109 C 
ATOM     39  O   UNL     1      -1.890   7.803  26.893  0.00  0.00    -0.276 OA
ENDBRANCH  34  35
BRANCH  31  40
ATOM     40  C   UNL     1      -4.546  13.161  23.276  0.00  0.00    +0.414 C 
ATOM     41  O   UNL     1      -4.570  14.081  24.093  0.00  0.00    -0.240 OA
ATOM     42  O   UNL     1      -3.737  13.200  22.349  0.00  0.00    -0.240 OA
ENDBRANCH  31  40
BRANCH  31  43
ATOM     43  O   UNL     1      -6.793  12.313  22.803  0.00  0.00    -0.343 OA
ATOM     44  C   UNL     1      -7.207  11.437  21.723  0.00  0.00    +0.198 C 
ENDBRANCH  31  43
BRANCH  33  45
ATOM     45  O   UNL     1      -3.337   8.918  22.814  0.00  0.00    -0.390 OA
ATOM     46  H   UNL     1      -4.094   8.510  22.387  0.00  0.00    +0.210 HD
ENDBRANCH  33  45
ENDBRANCH  28  29
BRANCH  28  47
ATOM     47  O   UNL     1      -6.355  11.543  27.236  0.00  0.00    -0.387 OA
ATOM     48  H   UNL     1      -6.954  11.198  26.570  0.00  0.00    +0.210 HD
ENDBRANCH  28  47
ENDBRANCH  25  28
ENDBRANCH   1  25
TORSDOF 17
