REMARK VINA RESULT:    -5.112      2.525      4.028
REMARK INTER + INTRA:         -13.883
REMARK INTER:                 -10.504
REMARK INTRA:                  -3.379
REMARK UNBOUND:                -3.392
REMARK  Name = lig_assembled_47.pdb
REMARK  22 active torsions:
REMARK  status: ('A' for Active; 'I' for Inactive)
REMARK    1  A    between atoms: _2  and  _9
REMARK    2  A    between atoms: _4  and  _30
REMARK    3  A    between atoms: _6  and  _7
REMARK    4  A    between atoms: _6  and  _30
REMARK    5  A    between atoms: _9  and  _10
REMARK    6  A    between atoms: _10  and  _11
REMARK    7  A    between atoms: _10  and  _12
REMARK    8  A    between atoms: _11  and  _24
REMARK    9  A    between atoms: _12  and  _13
REMARK   10  A    between atoms: _12  and  _19
REMARK   11  A    between atoms: _26  and  _46
REMARK   12  A    between atoms: _28  and  _34
REMARK   13  A    between atoms: _29  and  _33
REMARK   14  A    between atoms: _33  and  _34
REMARK   15  A    between atoms: _36  and  _37
REMARK   16  A    between atoms: _38  and  _39
REMARK   17  A    between atoms: _40  and  _42
REMARK   18  A    between atoms: _42  and  _43
REMARK   19  A    between atoms: _42  and  _44
REMARK   20  A    between atoms: _44  and  _45
REMARK   21  A    between atoms: _44  and  _46
REMARK   22  A    between atoms: _47  and  _49
REMARK                            x       y       z     vdW  Elec       q    Type
REMARK                         _______ _______ _______ _____ _____    ______ ____
ROOT
ATOM      1  C   UNL     1      -3.894  12.918  23.547  0.00  0.00    +0.401 C 
ATOM      2  O   UNL     1      -2.934  13.205  24.266  0.00  0.00    -0.226 OA
ATOM      3  N   UNL     1      -4.946  12.207  23.955  0.00  0.00    -0.279 N 
ATOM      4  H   UNL     1      -5.689  12.031  23.294  0.00  0.00    +0.152 HD
ENDROOT
BRANCH   3   5
ATOM      5  C   UNL     1      -5.085  11.665  25.313  0.00  0.00    +0.141 C 
BRANCH   5   6
ATOM      6  C   UNL     1      -4.849  10.159  25.351  0.00  0.00    +0.163 C 
BRANCH   6   7
ATOM      7  O   UNL     1      -5.321   9.556  24.135  0.00  0.00    -0.388 OA
ATOM      8  H   UNL     1      -5.804  10.208  23.621  0.00  0.00    +0.210 HD
ENDBRANCH   6   7
BRANCH   6   9
ATOM      9  C   UNL     1      -3.350   9.879  25.558  0.00  0.00    +0.175 C 
BRANCH   9  10
ATOM     10  C   UNL     1      -3.109   8.645  26.440  0.00  0.00    +0.176 C 
ATOM     11  O   UNL     1      -3.547   7.473  25.698  0.00  0.00    -0.332 OA
ATOM     12  C   UNL     1      -3.295   6.182  26.346  0.00  0.00    +0.277 C 
ATOM     13  C   UNL     1      -3.908   6.161  27.767  0.00  0.00    +0.110 C 
ATOM     14  C   UNL     1      -3.496   7.404  28.584  0.00  0.00    +0.143 C 
ATOM     15  C   UNL     1      -3.800   8.691  27.815  0.00  0.00    +0.133 C 
BRANCH  15  16
ATOM     16  N   UNL     1      -3.324   9.864  28.565  0.00  0.00    -0.308 N 
ATOM     17  H   UNL     1      -2.326   9.988  28.663  0.00  0.00    +0.149 HD
ATOM     18  C   UNL     1      -4.124  10.775  29.125  0.00  0.00    +0.210 C 
ATOM     19  C   UNL     1      -5.640  10.543  28.981  0.00  0.00    +0.109 C 
ATOM     20  O   UNL     1      -3.697  11.756  29.735  0.00  0.00    -0.276 OA
ENDBRANCH  15  16
BRANCH  12  21
ATOM     21  C   UNL     1      -1.781   5.901  26.433  0.00  0.00    +0.414 C 
ATOM     22  O   UNL     1      -1.046   6.157  25.479  0.00  0.00    -0.240 OA
ATOM     23  O   UNL     1      -1.293   5.418  27.456  0.00  0.00    -0.240 OA
ENDBRANCH  12  21
BRANCH  12  24
ATOM     24  O   UNL     1      -3.939   5.150  25.555  0.00  0.00    -0.343 OA
ATOM     25  C   UNL     1      -5.375   5.293  25.414  0.00  0.00    +0.198 C 
ENDBRANCH  12  24
BRANCH  14  26
ATOM     26  O   UNL     1      -4.201   7.420  29.826  0.00  0.00    -0.390 OA
ATOM     27  H   UNL     1      -5.053   7.846  29.705  0.00  0.00    +0.210 HD
ENDBRANCH  14  26
ENDBRANCH   9  10
BRANCH   9  28
ATOM     28  O   UNL     1      -2.704  11.033  26.131  0.00  0.00    -0.387 OA
ATOM     29  H   UNL     1      -2.106  11.419  25.486  0.00  0.00    +0.210 HD
ENDBRANCH   9  28
ENDBRANCH   6   9
ENDBRANCH   5   6
ENDBRANCH   3   5
BRANCH   1  30
ATOM     30  O   UNL     1      -3.903  13.367  22.189  0.00  0.00    -0.444 OA
BRANCH  30  31
ATOM     31  C   UNL     1      -3.102  12.492  21.391  0.00  0.00    +0.292 C 
BRANCH  31  33
ATOM     32  N   UNL     1      -4.035  10.194  21.270  0.00  0.00    -0.131 NA
ATOM     33  C   UNL     1      -3.932  11.456  20.744  0.00  0.00    +0.120 A 
ATOM     34  C   UNL     1      -4.674  11.517  19.584  0.00  0.00    +0.137 A 
ATOM     35  N   UNL     1      -5.162  10.252  19.435  0.00  0.00    -0.251 N 
ATOM     36  N   UNL     1      -4.794   9.466  20.460  0.00  0.00    -0.065 NA
BRANCH  35  37
ATOM     37  C   UNL     1      -5.848   9.685  18.283  0.00  0.00    +0.160 C 
BRANCH  37  38
ATOM     38  C   UNL     1      -5.097   8.526  17.621  0.00  0.00    +0.131 C 
BRANCH  38  39
ATOM     39  C   UNL     1      -5.973   7.286  17.742  0.00  0.00    +0.311 C 
ATOM     40  O   UNL     1      -6.561   6.794  16.791  0.00  0.00    -0.251 OA
BRANCH  39  41
ATOM     41  O   UNL     1      -5.992   6.669  18.942  0.00  0.00    -0.480 OA
ATOM     42  H   UNL     1      -5.776   7.184  19.736  0.00  0.00    +0.295 HD
ENDBRANCH  39  41
ENDBRANCH  38  39
BRANCH  38  43
ATOM     43  C   UNL     1      -4.660   8.789  16.146  0.00  0.00    +0.064 C 
BRANCH  43  44
ATOM     44  C   UNL     1      -4.709  10.248  15.689  0.00  0.00    -0.039 A 
ATOM     45  C   UNL     1      -5.661  10.649  14.732  0.00  0.00    +0.004 A 
ATOM     46  C   UNL     1      -5.733  11.975  14.293  0.00  0.00    +0.000 A 
ATOM     47  C   UNL     1      -4.843  12.923  14.788  0.00  0.00    +0.000 A 
ATOM     48  C   UNL     1      -3.882  12.543  15.719  0.00  0.00    +0.000 A 
ATOM     49  C   UNL     1      -3.821  11.221  16.174  0.00  0.00    +0.004 A 
ENDBRANCH  43  44
BRANCH  43  50
ATOM     50  C   UNL     1      -3.308   8.119  15.866  0.00  0.00    -0.039 A 
ATOM     51  C   UNL     1      -2.942   6.947  16.546  0.00  0.00    +0.004 A 
ATOM     52  C   UNL     1      -1.648   6.430  16.424  0.00  0.00    +0.000 A 
ATOM     53  C   UNL     1      -0.714   7.059  15.604  0.00  0.00    +0.000 A 
ATOM     54  C   UNL     1      -1.073   8.198  14.895  0.00  0.00    +0.000 A 
ATOM     55  C   UNL     1      -2.358   8.724  15.025  0.00  0.00    +0.004 A 
ENDBRANCH  43  50
ENDBRANCH  38  43
ENDBRANCH  37  38
ENDBRANCH  35  37
ENDBRANCH  31  33
ENDBRANCH  30  31
ENDBRANCH   1  30
TORSDOF 20
