REMARK VINA RESULT:    -4.768      3.943     10.350
REMARK INTER + INTRA:         -11.643
REMARK INTER:                  -8.999
REMARK INTRA:                  -2.644
REMARK UNBOUND:                -2.554
REMARK  Name = lig_assembled_9.pdb
REMARK  20 active torsions:
REMARK  status: ('A' for Active; 'I' for Inactive)
REMARK    1  A    between atoms: _2  and  _9
REMARK    2  A    between atoms: _4  and  _23
REMARK    3  A    between atoms: _6  and  _7
REMARK    4  A    between atoms: _6  and  _23
REMARK    5  A    between atoms: _11  and  _12
REMARK    6  A    between atoms: _12  and  _17
REMARK    7  A    between atoms: _13  and  _14
REMARK    8  A    between atoms: _13  and  _17
REMARK    9  A    between atoms: _19  and  _39
REMARK   10  A    between atoms: _21  and  _27
REMARK   11  A    between atoms: _22  and  _26
REMARK   12  A    between atoms: _26  and  _27
REMARK   13  A    between atoms: _29  and  _30
REMARK   14  A    between atoms: _31  and  _32
REMARK   15  A    between atoms: _33  and  _35
REMARK   16  A    between atoms: _35  and  _36
REMARK   17  A    between atoms: _35  and  _37
REMARK   18  A    between atoms: _37  and  _38
REMARK   19  A    between atoms: _37  and  _39
REMARK   20  A    between atoms: _40  and  _42
REMARK                            x       y       z     vdW  Elec       q    Type
REMARK                         _______ _______ _______ _____ _____    ______ ____
ROOT
ATOM      1  C   UNL     1      -6.055  12.355  25.613  0.00  0.00    +0.163 C 
ENDROOT
BRANCH   1   2
ATOM      2  O   UNL     1      -6.168  13.069  26.854  0.00  0.00    -0.388 OA
ATOM      3  H   UNL     1      -5.649  13.876  26.808  0.00  0.00    +0.210 HD
ENDBRANCH   1   2
BRANCH   1   4
ATOM      4  C   UNL     1      -6.330  10.854  25.814  0.00  0.00    +0.175 C 
BRANCH   4   5
ATOM      5  C   UNL     1      -5.154  10.138  26.493  0.00  0.00    +0.176 C 
ATOM      6  O   UNL     1      -5.147  10.521  27.896  0.00  0.00    -0.332 OA
ATOM      7  C   UNL     1      -4.149   9.847  28.732  0.00  0.00    +0.277 C 
ATOM      8  C   UNL     1      -2.732  10.026  28.134  0.00  0.00    +0.110 C 
ATOM      9  C   UNL     1      -2.697   9.660  26.635  0.00  0.00    +0.143 C 
ATOM     10  C   UNL     1      -3.777  10.415  25.861  0.00  0.00    +0.133 C 
BRANCH  10  11
ATOM     11  N   UNL     1      -3.790   9.994  24.451  0.00  0.00    -0.308 N 
ATOM     12  H   UNL     1      -4.144   9.072  24.238  0.00  0.00    +0.149 HD
ATOM     13  C   UNL     1      -3.366  10.751  23.435  0.00  0.00    +0.210 C 
ATOM     14  C   UNL     1      -2.809  12.141  23.797  0.00  0.00    +0.109 C 
ATOM     15  O   UNL     1      -3.402  10.377  22.262  0.00  0.00    -0.276 OA
ENDBRANCH  10  11
BRANCH   7  16
ATOM     16  C   UNL     1      -4.469   8.343  28.861  0.00  0.00    +0.414 C 
ATOM     17  O   UNL     1      -5.611   7.973  29.130  0.00  0.00    -0.240 OA
ATOM     18  O   UNL     1      -3.585   7.501  28.696  0.00  0.00    -0.240 OA
ENDBRANCH   7  16
BRANCH   7  19
ATOM     19  O   UNL     1      -4.172  10.465  30.045  0.00  0.00    -0.343 OA
ATOM     20  C   UNL     1      -2.987  10.239  30.849  0.00  0.00    +0.198 C 
ENDBRANCH   7  19
BRANCH   9  21
ATOM     21  O   UNL     1      -1.416   9.982  26.091  0.00  0.00    -0.390 OA
ATOM     22  H   UNL     1      -0.879  10.407  26.764  0.00  0.00    +0.210 HD
ENDBRANCH   9  21
ENDBRANCH   4   5
BRANCH   4  23
ATOM     23  O   UNL     1      -6.628  10.230  24.549  0.00  0.00    -0.387 OA
ATOM     24  H   UNL     1      -5.947   9.586  24.341  0.00  0.00    +0.210 HD
ENDBRANCH   4  23
ENDBRANCH   1   4
BRANCH   1  25
ATOM     25  C   UNL     1      -7.039  12.921  24.594  0.00  0.00    +0.141 C 
BRANCH  25  28
ATOM     26  C   UNL     1      -5.837  13.621  22.553  0.00  0.00    +0.401 C 
ATOM     27  O   UNL     1      -5.482  14.706  23.021  0.00  0.00    -0.226 OA
ATOM     28  N   UNL     1      -6.572  12.728  23.216  0.00  0.00    -0.279 N 
ATOM     29  H   UNL     1      -6.822  11.871  22.743  0.00  0.00    +0.152 HD
BRANCH  26  30
ATOM     30  O   UNL     1      -5.452  13.282  21.218  0.00  0.00    -0.444 OA
BRANCH  30  31
ATOM     31  C   UNL     1      -6.155  12.108  20.802  0.00  0.00    +0.292 C 
BRANCH  31  33
ATOM     32  N   UNL     1      -6.735  12.343  18.407  0.00  0.00    -0.131 NA
ATOM     33  C   UNL     1      -5.909  11.845  19.372  0.00  0.00    +0.121 A 
ATOM     34  C   UNL     1      -4.898  11.129  18.773  0.00  0.00    +0.143 A 
ATOM     35  N   UNL     1      -5.130  11.252  17.421  0.00  0.00    -0.220 N 
ATOM     36  N   UNL     1      -6.261  11.971  17.226  0.00  0.00    -0.060 NA
BRANCH  35  37
ATOM     37  C   UNL     1      -4.349  10.767  16.341  0.00  0.00    +0.068 A 
ATOM     38  C   UNL     1      -4.007  11.610  15.274  0.00  0.00    +0.042 A 
ATOM     39  C   UNL     1      -3.263  11.117  14.192  0.00  0.00    +0.061 A 
ATOM     40  C   UNL     1      -2.856   9.778  14.183  0.00  0.00    +0.015 A 
ATOM     41  C   UNL     1      -3.184   8.939  15.250  0.00  0.00    +0.003 A 
ATOM     42  C   UNL     1      -3.926   9.429  16.327  0.00  0.00    +0.028 A 
BRANCH  39  43
ATOM     43  C   UNL     1      -2.829  11.992  13.072  0.00  0.00    +0.339 C 
ATOM     44  O   UNL     1      -1.874  11.750  12.353  0.00  0.00    -0.245 OA
BRANCH  43  45
ATOM     45  O   UNL     1      -3.585  13.118  13.050  0.00  0.00    -0.461 OA
BRANCH  45  46
ATOM     46  C   UNL     1      -3.018  14.230  12.346  0.00  0.00    +0.229 C 
ATOM     47  C   UNL     1      -2.468  15.203  13.372  0.00  0.00    +0.048 C 
ENDBRANCH  45  46
ENDBRANCH  43  45
ENDBRANCH  39  43
ENDBRANCH  35  37
ENDBRANCH  31  33
ENDBRANCH  30  31
ENDBRANCH  26  30
ENDBRANCH  25  28
ENDBRANCH   1  25
TORSDOF 17
