REMARK VINA RESULT:    -4.946      4.554      9.901
REMARK INTER + INTRA:         -11.402
REMARK INTER:                  -8.431
REMARK INTRA:                  -2.970
REMARK UNBOUND:                -2.841
REMARK  Name = lig_assembled_86.pdb
REMARK  17 active torsions:
REMARK  status: ('A' for Active; 'I' for Inactive)
REMARK    1  A    between atoms: _2  and  _10
REMARK    2  A    between atoms: _3  and  _13
REMARK    3  A    between atoms: _5  and  _21
REMARK    4  A    between atoms: _7  and  _8
REMARK    5  A    between atoms: _7  and  _21
REMARK    6  A    between atoms: _17  and  _37
REMARK    7  A    between atoms: _19  and  _25
REMARK    8  A    between atoms: _20  and  _24
REMARK    9  A    between atoms: _24  and  _25
REMARK   10  A    between atoms: _27  and  _28
REMARK   11  A    between atoms: _29  and  _30
REMARK   12  A    between atoms: _31  and  _33
REMARK   13  A    between atoms: _33  and  _34
REMARK   14  A    between atoms: _33  and  _35
REMARK   15  A    between atoms: _35  and  _36
REMARK   16  A    between atoms: _35  and  _37
REMARK   17  A    between atoms: _38  and  _40
REMARK                            x       y       z     vdW  Elec       q    Type
REMARK                         _______ _______ _______ _____ _____    ______ ____
ROOT
ATOM      1  C   UNL     1      -5.059   7.299  23.876  0.00  0.00    +0.163 C 
ENDROOT
BRANCH   1   2
ATOM      2  O   UNL     1      -3.806   6.938  24.481  0.00  0.00    -0.388 OA
ATOM      3  H   UNL     1      -3.236   6.535  23.821  0.00  0.00    +0.210 HD
ENDBRANCH   1   2
BRANCH   1   4
ATOM      4  C   UNL     1      -5.287   6.471  22.616  0.00  0.00    +0.141 C 
BRANCH   4   7
ATOM      5  C   UNL     1      -5.958   6.934  20.283  0.00  0.00    +0.401 C 
ATOM      6  O   UNL     1      -5.312   5.995  19.812  0.00  0.00    -0.226 OA
ATOM      7  N   UNL     1      -5.998   7.234  21.582  0.00  0.00    -0.279 N 
ATOM      8  H   UNL     1      -6.549   8.030  21.871  0.00  0.00    +0.152 HD
BRANCH   5   9
ATOM      9  O   UNL     1      -6.714   7.769  19.401  0.00  0.00    -0.444 OA
BRANCH   9  10
ATOM     10  C   UNL     1      -7.001   9.011  20.049  0.00  0.00    +0.292 C 
BRANCH  10  12
ATOM     11  N   UNL     1      -7.488  11.328  19.310  0.00  0.00    -0.131 NA
ATOM     12  C   UNL     1      -6.865  10.127  19.094  0.00  0.00    +0.120 A 
ATOM     13  C   UNL     1      -6.151  10.200  17.921  0.00  0.00    +0.137 A 
ATOM     14  N   UNL     1      -6.349  11.477  17.491  0.00  0.00    -0.248 N 
ATOM     15  N   UNL     1      -7.179  12.144  18.311  0.00  0.00    -0.065 NA
BRANCH  14  16
ATOM     16  C   UNL     1      -5.770  12.114  16.318  0.00  0.00    +0.112 C 
ATOM     17  C   UNL     1      -4.261  12.380  16.496  0.00  0.00    +0.045 C 
ATOM     18  C   UNL     1      -3.396  11.976  15.298  0.00  0.00    +0.059 C 
ATOM     19  C   UNL     1      -3.197  10.458  15.246  0.00  0.00    +0.020 C 
ATOM     20  C   UNL     1      -4.302   9.957  14.320  0.00  0.00    +0.020 C 
ATOM     21  C   UNL     1      -5.107  11.211  13.971  0.00  0.00    +0.059 C 
ATOM     22  N   UNL     1      -4.054  12.225  14.016  0.00  0.00    -0.299 NA
ATOM     23  C   UNL     1      -4.459  13.590  13.742  0.00  0.00    +0.105 C 
ATOM     24  C   UNL     1      -6.225  11.459  14.994  0.00  0.00    +0.045 C 
ENDBRANCH  14  16
ENDBRANCH  10  12
ENDBRANCH   9  10
ENDBRANCH   5   9
ENDBRANCH   4   7
ENDBRANCH   1   4
BRANCH   1  25
ATOM     25  C   UNL     1      -5.086   8.796  23.520  0.00  0.00    +0.175 C 
BRANCH  25  26
ATOM     26  C   UNL     1      -3.981   9.582  24.240  0.00  0.00    +0.176 C 
ATOM     27  O   UNL     1      -4.293   9.592  25.661  0.00  0.00    -0.332 OA
ATOM     28  C   UNL     1      -3.285  10.212  26.526  0.00  0.00    +0.277 C 
ATOM     29  C   UNL     1      -2.973  11.652  26.048  0.00  0.00    +0.110 C 
ATOM     30  C   UNL     1      -2.666  11.696  24.537  0.00  0.00    +0.143 C 
ATOM     31  C   UNL     1      -3.777  11.021  23.731  0.00  0.00    +0.133 C 
BRANCH  31  32
ATOM     32  N   UNL     1      -3.433  10.992  22.301  0.00  0.00    -0.308 N 
ATOM     33  H   UNL     1      -2.630  10.447  22.021  0.00  0.00    +0.149 HD
ATOM     34  C   UNL     1      -4.111  11.639  21.350  0.00  0.00    +0.210 C 
ATOM     35  C   UNL     1      -5.315  12.482  21.814  0.00  0.00    +0.109 C 
ATOM     36  O   UNL     1      -3.808  11.585  20.158  0.00  0.00    -0.276 OA
ENDBRANCH  31  32
BRANCH  28  37
ATOM     37  C   UNL     1      -1.986   9.380  26.537  0.00  0.00    +0.414 C 
ATOM     38  O   UNL     1      -0.892   9.938  26.604  0.00  0.00    -0.240 OA
ATOM     39  O   UNL     1      -2.032   8.150  26.479  0.00  0.00    -0.240 OA
ENDBRANCH  28  37
BRANCH  30  40
ATOM     40  O   UNL     1      -2.535  13.053  24.111  0.00  0.00    -0.390 OA
ATOM     41  H   UNL     1      -2.722  13.114  23.172  0.00  0.00    +0.210 HD
ENDBRANCH  30  40
BRANCH  28  42
ATOM     42  O   UNL     1      -3.830  10.284  27.869  0.00  0.00    -0.343 OA
ATOM     43  C   UNL     1      -4.099  11.626  28.350  0.00  0.00    +0.198 C 
ENDBRANCH  28  42
ENDBRANCH  25  26
BRANCH  25  44
ATOM     44  O   UNL     1      -6.378   9.356  23.831  0.00  0.00    -0.387 OA
ATOM     45  H   UNL     1      -6.300   9.937  24.592  0.00  0.00    +0.210 HD
ENDBRANCH  25  44
ENDBRANCH   1  25
TORSDOF 14
