REMARK VINA RESULT:    -5.599      0.000      0.000
REMARK INTER + INTRA:         -11.698
REMARK INTER:                  -8.806
REMARK INTRA:                  -2.891
REMARK UNBOUND:                -2.334
REMARK  Name = lig_assembled_65.pdb
REMARK  16 active torsions:
REMARK  status: ('A' for Active; 'I' for Inactive)
REMARK    1  A    between atoms: _8  and  _20
REMARK    2  A    between atoms: _9  and  _15
REMARK    3  A    between atoms: _10  and  _11
REMARK    4  A    between atoms: _10  and  _20
REMARK    5  A    between atoms: _16  and  _36
REMARK    6  A    between atoms: _18  and  _24
REMARK    7  A    between atoms: _19  and  _23
REMARK    8  A    between atoms: _23  and  _24
REMARK    9  A    between atoms: _26  and  _27
REMARK   10  A    between atoms: _28  and  _29
REMARK   11  A    between atoms: _30  and  _32
REMARK   12  A    between atoms: _32  and  _33
REMARK   13  A    between atoms: _32  and  _34
REMARK   14  A    between atoms: _34  and  _35
REMARK   15  A    between atoms: _34  and  _36
REMARK   16  A    between atoms: _37  and  _39
REMARK                            x       y       z     vdW  Elec       q    Type
REMARK                         _______ _______ _______ _____ _____    ______ ____
ROOT
ATOM      1  C   UNL     1      -2.034   8.514  13.418  0.00  0.00    +0.163 C 
ENDROOT
BRANCH   1   2
ATOM      2  O   UNL     1      -2.294   8.332  12.016  0.00  0.00    -0.388 OA
ATOM      3  H   UNL     1      -2.284   9.185  11.575  0.00  0.00    +0.210 HD
ENDBRANCH   1   2
BRANCH   1   4
ATOM      4  C   UNL     1      -2.261   7.204  14.164  0.00  0.00    +0.141 C 
BRANCH   4   7
ATOM      5  C   UNL     1      -3.098   6.855  16.463  0.00  0.00    +0.401 C 
ATOM      6  O   UNL     1      -2.108   6.215  16.827  0.00  0.00    -0.226 OA
ATOM      7  N   UNL     1      -3.256   7.349  15.235  0.00  0.00    -0.279 N 
ATOM      8  H   UNL     1      -4.107   7.852  15.029  0.00  0.00    +0.152 HD
BRANCH   5   9
ATOM      9  O   UNL     1      -4.155   7.089  17.397  0.00  0.00    -0.444 OA
BRANCH   9  10
ATOM     10  C   UNL     1      -5.115   7.977  16.819  0.00  0.00    +0.292 C 
BRANCH  10  12
ATOM     11  N   UNL     1      -6.841   9.158  18.145  0.00  0.00    -0.131 NA
ATOM     12  C   UNL     1      -5.527   8.999  17.798  0.00  0.00    +0.121 A 
ATOM     13  C   UNL     1      -4.767   9.909  18.494  0.00  0.00    +0.149 A 
ATOM     14  N   UNL     1      -5.671  10.618  19.256  0.00  0.00    -0.155 N 
ATOM     15  C   UNL     1      -5.387  11.695  20.147  0.00  0.00    +0.416 C 
ATOM     16  N   UNL     1      -6.402  12.263  20.809  0.00  0.00    +0.041 NA
ATOM     17  C   UNL     1      -6.061  13.272  21.607  0.00  0.00    +0.339 C 
ATOM     18  C   UNL     1      -7.155  13.957  22.365  0.00  0.00    +0.149 C 
ATOM     19  N   UNL     1      -4.816  13.720  21.769  0.00  0.00    +0.007 NA
ATOM     20  C   UNL     1      -3.889  13.098  21.059  0.00  0.00    +0.386 C 
ATOM     21  N   UNL     1      -2.588  13.539  21.188  0.00  0.00    -0.296 N 
ATOM     22  H   UNL     1      -2.463  14.031  22.062  0.00  0.00    +0.148 HD
ATOM     23  H   UNL     1      -1.929  12.807  20.965  0.00  0.00    +0.148 HD
ATOM     24  N   UNL     1      -4.106  12.074  20.253  0.00  0.00    -0.290 NA
ATOM     25  N   UNL     1      -6.922  10.141  19.034  0.00  0.00    -0.055 NA
ENDBRANCH  10  12
ENDBRANCH   9  10
ENDBRANCH   5   9
ENDBRANCH   4   7
ENDBRANCH   1   4
BRANCH   1  26
ATOM     26  C   UNL     1      -2.942   9.606  14.009  0.00  0.00    +0.175 C 
BRANCH  26  27
ATOM     27  C   UNL     1      -3.159  10.769  13.029  0.00  0.00    +0.176 C 
ATOM     28  O   UNL     1      -1.870  11.115  12.452  0.00  0.00    -0.332 OA
ATOM     29  C   UNL     1      -1.899  12.143  11.408  0.00  0.00    +0.277 C 
ATOM     30  C   UNL     1      -2.600  13.423  11.927  0.00  0.00    +0.110 C 
ATOM     31  C   UNL     1      -3.961  13.101  12.578  0.00  0.00    +0.143 C 
ATOM     32  C   UNL     1      -3.816  12.018  13.647  0.00  0.00    +0.133 C 
BRANCH  32  33
ATOM     33  N   UNL     1      -5.132  11.659  14.199  0.00  0.00    -0.308 N 
ATOM     34  H   UNL     1      -5.786  11.188  13.590  0.00  0.00    +0.149 HD
ATOM     35  C   UNL     1      -5.518  11.914  15.452  0.00  0.00    +0.210 C 
ATOM     36  C   UNL     1      -4.507  12.655  16.348  0.00  0.00    +0.109 C 
ATOM     37  O   UNL     1      -6.621  11.588  15.892  0.00  0.00    -0.276 OA
ENDBRANCH  32  33
BRANCH  29  38
ATOM     38  C   UNL     1      -2.631  11.627  10.152  0.00  0.00    +0.414 C 
ATOM     39  O   UNL     1      -3.223  12.413   9.412  0.00  0.00    -0.240 OA
ATOM     40  O   UNL     1      -2.631  10.426   9.878  0.00  0.00    -0.240 OA
ENDBRANCH  29  38
BRANCH  29  41
ATOM     41  O   UNL     1      -0.528  12.478  11.070  0.00  0.00    -0.343 OA
ATOM     42  C   UNL     1      -0.165  13.865  11.286  0.00  0.00    +0.198 C 
ENDBRANCH  29  41
BRANCH  31  43
ATOM     43  O   UNL     1      -4.500  14.282  13.175  0.00  0.00    -0.390 OA
ATOM     44  H   UNL     1      -5.344  14.491  12.766  0.00  0.00    +0.210 HD
ENDBRANCH  31  43
ENDBRANCH  26  27
BRANCH  26  45
ATOM     45  O   UNL     1      -2.388  10.096  15.246  0.00  0.00    -0.387 OA
ATOM     46  H   UNL     1      -1.765  10.803  15.061  0.00  0.00    +0.210 HD
ENDBRANCH  26  45
ENDBRANCH   1  26
TORSDOF 13
