REMARK VINA RESULT:    -5.041      6.290      9.184
REMARK INTER + INTRA:         -12.068
REMARK INTER:                  -9.219
REMARK INTRA:                  -2.849
REMARK UNBOUND:                -3.049
REMARK  Name = lig_assembled_28.pdb
REMARK  17 active torsions:
REMARK  status: ('A' for Active; 'I' for Inactive)
REMARK    1  A    between atoms: _2  and  _9
REMARK    2  A    between atoms: _4  and  _22
REMARK    3  A    between atoms: _6  and  _7
REMARK    4  A    between atoms: _6  and  _22
REMARK    5  A    between atoms: _9  and  _10
REMARK    6  A    between atoms: _18  and  _38
REMARK    7  A    between atoms: _20  and  _26
REMARK    8  A    between atoms: _21  and  _25
REMARK    9  A    between atoms: _25  and  _26
REMARK   10  A    between atoms: _28  and  _29
REMARK   11  A    between atoms: _30  and  _31
REMARK   12  A    between atoms: _32  and  _34
REMARK   13  A    between atoms: _34  and  _35
REMARK   14  A    between atoms: _34  and  _36
REMARK   15  A    between atoms: _36  and  _37
REMARK   16  A    between atoms: _36  and  _38
REMARK   17  A    between atoms: _39  and  _41
REMARK                            x       y       z     vdW  Elec       q    Type
REMARK                         _______ _______ _______ _____ _____    ______ ____
ROOT
ATOM      1  C   UNL     1      -5.111   7.839  17.278  0.00  0.00    +0.163 C 
ENDROOT
BRANCH   1   2
ATOM      2  O   UNL     1      -5.013   6.730  16.370  0.00  0.00    -0.388 OA
ATOM      3  H   UNL     1      -4.813   7.054  15.489  0.00  0.00    +0.210 HD
ENDBRANCH   1   2
BRANCH   1   4
ATOM      4  C   UNL     1      -6.443   7.789  18.021  0.00  0.00    +0.141 C 
BRANCH   4   7
ATOM      5  C   UNL     1      -7.067   9.560  19.626  0.00  0.00    +0.401 C 
ATOM      6  O   UNL     1      -6.821   8.876  20.622  0.00  0.00    -0.226 OA
ATOM      7  N   UNL     1      -6.924   9.130  18.372  0.00  0.00    -0.279 N 
ATOM      8  H   UNL     1      -7.161   9.764  17.621  0.00  0.00    +0.152 HD
BRANCH   5   9
ATOM      9  O   UNL     1      -7.539  10.899  19.803  0.00  0.00    -0.444 OA
BRANCH   9  10
ATOM     10  C   UNL     1      -6.621  11.813  19.197  0.00  0.00    +0.292 C 
BRANCH  10  12
ATOM     11  N   UNL     1      -4.232  12.031  19.823  0.00  0.00    -0.131 NA
ATOM     12  C   UNL     1      -5.553  12.175  20.149  0.00  0.00    +0.120 A 
ATOM     13  C   UNL     1      -5.649  12.710  21.413  0.00  0.00    +0.137 A 
ATOM     14  N   UNL     1      -4.354  12.961  21.768  0.00  0.00    -0.247 N 
ATOM     15  N   UNL     1      -3.505  12.504  20.827  0.00  0.00    -0.065 NA
BRANCH  14  16
ATOM     16  C   UNL     1      -3.812  13.694  22.904  0.00  0.00    +0.180 C 
BRANCH  16  17
ATOM     17  C   UNL     1      -3.722  12.874  24.169  0.00  0.00    -0.022 A 
ATOM     18  C   UNL     1      -2.740  11.875  24.295  0.00  0.00    +0.055 A 
ATOM     19  C   UNL     1      -2.623  11.233  25.509  0.00  0.00    +0.167 A 
ATOM     20  O   UNL     1      -1.695  10.286  25.818  0.00  0.00    -0.453 OA
ATOM     21  C   UNL     1      -1.972  10.087  27.220  0.00  0.00    +0.466 C 
ATOM     22  O   UNL     1      -3.142  10.798  27.679  0.00  0.00    -0.453 OA
ATOM     23  C   UNL     1      -3.447  11.521  26.568  0.00  0.00    +0.166 A 
ATOM     24  C   UNL     1      -4.444  12.469  26.472  0.00  0.00    +0.050 A 
ATOM     25  C   UNL     1      -4.575  13.156  25.261  0.00  0.00    +0.009 A 
ENDBRANCH  16  17
ENDBRANCH  14  16
ENDBRANCH  10  12
ENDBRANCH   9  10
ENDBRANCH   5   9
ENDBRANCH   4   7
ENDBRANCH   1   4
BRANCH   1  26
ATOM     26  C   UNL     1      -4.991   9.176  16.528  0.00  0.00    +0.175 C 
BRANCH  26  27
ATOM     27  C   UNL     1      -4.288   9.017  15.172  0.00  0.00    +0.176 C 
ATOM     28  O   UNL     1      -3.122   8.171  15.370  0.00  0.00    -0.332 OA
ATOM     29  C   UNL     1      -2.381   7.820  14.155  0.00  0.00    +0.277 C 
ATOM     30  C   UNL     1      -1.974   9.098  13.381  0.00  0.00    +0.110 C 
ATOM     31  C   UNL     1      -3.175  10.045  13.174  0.00  0.00    +0.143 C 
ATOM     32  C   UNL     1      -3.875  10.341  14.501  0.00  0.00    +0.133 C 
BRANCH  32  33
ATOM     33  N   UNL     1      -5.068  11.173  14.280  0.00  0.00    -0.308 N 
ATOM     34  H   UNL     1      -5.855  10.753  13.806  0.00  0.00    +0.149 HD
ATOM     35  C   UNL     1      -5.179  12.447  14.666  0.00  0.00    +0.210 C 
ATOM     36  C   UNL     1      -3.953  13.066  15.364  0.00  0.00    +0.109 C 
ATOM     37  O   UNL     1      -6.197  13.115  14.481  0.00  0.00    -0.276 OA
ENDBRANCH  32  33
BRANCH  29  38
ATOM     38  C   UNL     1      -3.228   6.911  13.240  0.00  0.00    +0.414 C 
ATOM     39  O   UNL     1      -3.088   6.957  12.018  0.00  0.00    -0.240 OA
ATOM     40  O   UNL     1      -4.050   6.132  13.723  0.00  0.00    -0.240 OA
ENDBRANCH  29  38
BRANCH  29  41
ATOM     41  O   UNL     1      -1.172   7.122  14.552  0.00  0.00    -0.343 OA
ATOM     42  C   UNL     1      -1.033   6.902  15.979  0.00  0.00    +0.198 C 
ENDBRANCH  29  41
BRANCH  31  43
ATOM     43  O   UNL     1      -2.728  11.271  12.595  0.00  0.00    -0.390 OA
ATOM     44  H   UNL     1      -2.084  11.684  13.175  0.00  0.00    +0.210 HD
ENDBRANCH  31  43
ENDBRANCH  26  27
BRANCH  26  45
ATOM     45  O   UNL     1      -4.291  10.140  17.341  0.00  0.00    -0.387 OA
ATOM     46  H   UNL     1      -4.863  10.432  18.055  0.00  0.00    +0.210 HD
ENDBRANCH  26  45
ENDBRANCH   1  26
TORSDOF 15
