REMARK VINA RESULT:    -4.999      3.423      6.635
REMARK INTER + INTRA:         -11.724
REMARK INTER:                  -9.120
REMARK INTRA:                  -2.603
REMARK UNBOUND:                -2.779
REMARK  Name = lig_assembled_39.pdb
REMARK  17 active torsions:
REMARK  status: ('A' for Active; 'I' for Inactive)
REMARK    1  A    between atoms: _2  and  _9
REMARK    2  A    between atoms: _4  and  _19
REMARK    3  A    between atoms: _6  and  _7
REMARK    4  A    between atoms: _6  and  _19
REMARK    5  A    between atoms: _9  and  _10
REMARK    6  A    between atoms: _15  and  _35
REMARK    7  A    between atoms: _17  and  _23
REMARK    8  A    between atoms: _18  and  _22
REMARK    9  A    between atoms: _22  and  _23
REMARK   10  A    between atoms: _25  and  _26
REMARK   11  A    between atoms: _27  and  _28
REMARK   12  A    between atoms: _29  and  _31
REMARK   13  A    between atoms: _31  and  _32
REMARK   14  A    between atoms: _31  and  _33
REMARK   15  A    between atoms: _33  and  _34
REMARK   16  A    between atoms: _33  and  _35
REMARK   17  A    between atoms: _36  and  _38
REMARK                            x       y       z     vdW  Elec       q    Type
REMARK                         _______ _______ _______ _____ _____    ______ ____
ROOT
ATOM      1  C   UNL     1      -3.209  11.821  25.106  0.00  0.00    +0.163 C 
ENDROOT
BRANCH   1   2
ATOM      2  O   UNL     1      -2.021  11.016  25.029  0.00  0.00    -0.388 OA
ATOM      3  H   UNL     1      -1.826  10.821  24.109  0.00  0.00    +0.210 HD
ENDBRANCH   1   2
BRANCH   1   4
ATOM      4  C   UNL     1      -2.987  13.149  24.390  0.00  0.00    +0.141 C 
BRANCH   4   7
ATOM      5  C   UNL     1      -5.097  13.965  23.394  0.00  0.00    +0.401 C 
ATOM      6  O   UNL     1      -5.518  14.446  24.449  0.00  0.00    -0.226 OA
ATOM      7  N   UNL     1      -3.926  13.335  23.277  0.00  0.00    -0.279 N 
ATOM      8  H   UNL     1      -3.672  12.966  22.372  0.00  0.00    +0.152 HD
BRANCH   5   9
ATOM      9  O   UNL     1      -5.896  14.072  22.214  0.00  0.00    -0.444 OA
BRANCH   9  10
ATOM     10  C   UNL     1      -6.575  12.835  21.982  0.00  0.00    +0.292 C 
BRANCH  10  12
ATOM     11  N   UNL     1      -4.719  11.689  20.809  0.00  0.00    -0.131 NA
ATOM     12  C   UNL     1      -6.010  12.151  20.804  0.00  0.00    +0.120 A 
ATOM     13  C   UNL     1      -6.594  11.843  19.595  0.00  0.00    +0.137 A 
ATOM     14  N   UNL     1      -5.635  11.124  18.944  0.00  0.00    -0.247 N 
ATOM     15  N   UNL     1      -4.490  11.087  19.651  0.00  0.00    -0.065 NA
BRANCH  14  16
ATOM     16  C   UNL     1      -5.761  10.393  17.692  0.00  0.00    +0.181 C 
BRANCH  16  17
ATOM     17  C   UNL     1      -4.833  10.904  16.604  0.00  0.00    -0.012 A 
ATOM     18  C   UNL     1      -4.848  12.258  16.214  0.00  0.00    +0.006 A 
ATOM     19  C   UNL     1      -4.004  12.740  15.210  0.00  0.00    +0.000 A 
ATOM     20  C   UNL     1      -3.140  11.874  14.555  0.00  0.00    +0.001 A 
ATOM     21  C   UNL     1      -3.134  10.522  14.889  0.00  0.00    +0.015 A 
ATOM     22  C   UNL     1      -3.980  10.036  15.896  0.00  0.00    +0.023 A 
ATOM     23 BR   UNL     1      -3.926   8.164  16.224  0.00  0.00    -0.050 Br
ENDBRANCH  16  17
ENDBRANCH  14  16
ENDBRANCH  10  12
ENDBRANCH   9  10
ENDBRANCH   5   9
ENDBRANCH   4   7
ENDBRANCH   1   4
BRANCH   1  24
ATOM     24  C   UNL     1      -3.600  12.086  26.570  0.00  0.00    +0.175 C 
BRANCH  24  25
ATOM     25  C   UNL     1      -3.379  10.853  27.459  0.00  0.00    +0.176 C 
ATOM     26  O   UNL     1      -4.030   9.720  26.822  0.00  0.00    -0.332 OA
ATOM     27  C   UNL     1      -3.833   8.424  27.480  0.00  0.00    +0.277 C 
ATOM     28  C   UNL     1      -4.256   8.503  28.967  0.00  0.00    +0.110 C 
ATOM     29  C   UNL     1      -3.614   9.712  29.679  0.00  0.00    +0.143 C 
ATOM     30  C   UNL     1      -3.877  11.006  28.908  0.00  0.00    +0.133 C 
BRANCH  30  31
ATOM     31  N   UNL     1      -3.187  12.137  29.549  0.00  0.00    -0.308 N 
ATOM     32  H   UNL     1      -2.177  12.125  29.565  0.00  0.00    +0.149 HD
ATOM     33  C   UNL     1      -3.809  13.177  30.110  0.00  0.00    +0.210 C 
ATOM     34  C   UNL     1      -5.349  13.153  30.093  0.00  0.00    +0.109 C 
ATOM     35  O   UNL     1      -3.204  14.118  30.627  0.00  0.00    -0.276 OA
ENDBRANCH  30  31
BRANCH  27  36
ATOM     36  C   UNL     1      -2.359   7.981  27.386  0.00  0.00    +0.414 C 
ATOM     37  O   UNL     1      -1.863   7.284  28.270  0.00  0.00    -0.240 OA
ATOM     38  O   UNL     1      -1.665   8.320  26.426  0.00  0.00    -0.240 OA
ENDBRANCH  27  36
BRANCH  27  39
ATOM     39  O   UNL     1      -4.679   7.451  26.815  0.00  0.00    -0.343 OA
ATOM     40  C   UNL     1      -5.222   7.880  25.541  0.00  0.00    +0.198 C 
ENDBRANCH  27  39
BRANCH  29  41
ATOM     41  O   UNL     1      -4.146   9.833  30.999  0.00  0.00    -0.390 OA
ATOM     42  H   UNL     1      -3.859   9.088  31.530  0.00  0.00    +0.210 HD
ENDBRANCH  29  41
ENDBRANCH  24  25
BRANCH  24  43
ATOM     43  O   UNL     1      -4.975  12.514  26.648  0.00  0.00    -0.387 OA
ATOM     44  H   UNL     1      -5.354  12.534  25.766  0.00  0.00    +0.210 HD
ENDBRANCH  24  43
ENDBRANCH   1  24
TORSDOF 15
