REMARK VINA RESULT:    -3.576      2.169      5.408
REMARK INTER + INTRA:         -11.872
REMARK INTER:                  -7.590
REMARK INTRA:                  -4.282
REMARK UNBOUND:                -4.638
REMARK  Name = lig_assembled_11.pdb
REMARK  22 active torsions:
REMARK  status: ('A' for Active; 'I' for Inactive)
REMARK    1  A    between atoms: _2  and  _9
REMARK    2  A    between atoms: _4  and  _21
REMARK    3  A    between atoms: _5  and  _9
REMARK    4  A    between atoms: _5  and  _13
REMARK    5  A    between atoms: _6  and  _7
REMARK    6  A    between atoms: _6  and  _21
REMARK    7  A    between atoms: _9  and  _10
REMARK    8  A    between atoms: _10  and  _11
REMARK    9  A    between atoms: _11  and  _12
REMARK   10  A    between atoms: _12  and  _15
REMARK   11  A    between atoms: _17  and  _37
REMARK   12  A    between atoms: _19  and  _25
REMARK   13  A    between atoms: _20  and  _24
REMARK   14  A    between atoms: _24  and  _25
REMARK   15  A    between atoms: _27  and  _28
REMARK   16  A    between atoms: _29  and  _30
REMARK   17  A    between atoms: _31  and  _33
REMARK   18  A    between atoms: _33  and  _34
REMARK   19  A    between atoms: _33  and  _35
REMARK   20  A    between atoms: _35  and  _36
REMARK   21  A    between atoms: _35  and  _37
REMARK   22  A    between atoms: _38  and  _40
REMARK                            x       y       z     vdW  Elec       q    Type
REMARK                         _______ _______ _______ _____ _____    ______ ____
ROOT
ATOM      1  C   UNL     1      -2.025   8.732  28.364  0.00  0.00    +0.163 C 
ENDROOT
BRANCH   1   2
ATOM      2  O   UNL     1      -1.853   8.128  27.072  0.00  0.00    -0.388 OA
ATOM      3  H   UNL     1      -2.050   8.772  26.387  0.00  0.00    +0.210 HD
ENDBRANCH   1   2
BRANCH   1   4
ATOM      4  C   UNL     1      -3.199   9.727  28.354  0.00  0.00    +0.175 C 
BRANCH   4   5
ATOM      5  C   UNL     1      -3.709  10.005  26.933  0.00  0.00    +0.176 C 
ATOM      6  O   UNL     1      -3.947  11.434  26.815  0.00  0.00    -0.332 OA
ATOM      7  C   UNL     1      -4.341  11.904  25.483  0.00  0.00    +0.277 C 
ATOM      8  C   UNL     1      -5.580  11.124  24.979  0.00  0.00    +0.110 C 
ATOM      9  C   UNL     1      -5.387   9.599  25.114  0.00  0.00    +0.143 C 
ATOM     10  C   UNL     1      -4.975   9.222  26.538  0.00  0.00    +0.133 C 
BRANCH  10  11
ATOM     11  N   UNL     1      -4.710   7.778  26.633  0.00  0.00    -0.308 N 
ATOM     12  H   UNL     1      -4.027   7.381  26.002  0.00  0.00    +0.149 HD
ATOM     13  C   UNL     1      -5.312   6.957  27.497  0.00  0.00    +0.210 C 
ATOM     14  C   UNL     1      -6.367   7.587  28.427  0.00  0.00    +0.109 C 
ATOM     15  O   UNL     1      -5.059   5.754  27.564  0.00  0.00    -0.276 OA
ENDBRANCH  10  11
BRANCH   7  16
ATOM     16  C   UNL     1      -3.182  11.735  24.479  0.00  0.00    +0.414 C 
ATOM     17  O   UNL     1      -2.045  12.102  24.775  0.00  0.00    -0.240 OA
ATOM     18  O   UNL     1      -3.383  11.232  23.372  0.00  0.00    -0.240 OA
ENDBRANCH   7  16
BRANCH   7  19
ATOM     19  O   UNL     1      -4.695  13.307  25.588  0.00  0.00    -0.343 OA
ATOM     20  C   UNL     1      -5.593  13.790  24.558  0.00  0.00    +0.198 C 
ENDBRANCH   7  19
BRANCH   9  21
ATOM     21  O   UNL     1      -6.603   8.928  24.783  0.00  0.00    -0.390 OA
ATOM     22  H   UNL     1      -7.288   9.179  25.407  0.00  0.00    +0.210 HD
ENDBRANCH   9  21
ENDBRANCH   4   5
BRANCH   4  23
ATOM     23  O   UNL     1      -2.810  10.959  28.993  0.00  0.00    -0.387 OA
ATOM     24  H   UNL     1      -1.898  10.895  29.287  0.00  0.00    +0.210 HD
ENDBRANCH   4  23
ENDBRANCH   1   4
BRANCH   1  25
ATOM     25  C   UNL     1      -2.278   7.655  29.414  0.00  0.00    +0.141 C 
BRANCH  25  28
ATOM     26  C   UNL     1      -3.277   7.529  31.670  0.00  0.00    +0.401 C 
ATOM     27  O   UNL     1      -2.673   6.500  31.983  0.00  0.00    -0.226 OA
ATOM     28  N   UNL     1      -3.157   8.134  30.488  0.00  0.00    -0.279 N 
ATOM     29  H   UNL     1      -3.702   8.969  30.321  0.00  0.00    +0.152 HD
BRANCH  26  30
ATOM     30  O   UNL     1      -4.169   8.125  32.616  0.00  0.00    -0.444 OA
BRANCH  30  31
ATOM     31  C   UNL     1      -3.432   8.978  33.496  0.00  0.00    +0.292 C 
BRANCH  31  33
ATOM     32  N   UNL     1      -2.185  10.665  32.183  0.00  0.00    -0.131 NA
ATOM     33  C   UNL     1      -3.292  10.324  32.911  0.00  0.00    +0.120 A 
ATOM     34  C   UNL     1      -4.147  11.401  32.957  0.00  0.00    +0.138 A 
ATOM     35  N   UNL     1      -3.488  12.385  32.276  0.00  0.00    -0.238 N 
ATOM     36  N   UNL     1      -2.321  11.924  31.788  0.00  0.00    -0.065 NA
BRANCH  35  37
ATOM     37  C   UNL     1      -3.917  13.730  31.908  0.00  0.00    +0.217 C 
BRANCH  37  38
ATOM     38  C   UNL     1      -3.582  14.788  32.949  0.00  0.00    +0.330 C 
ATOM     39  O   UNL     1      -2.635  15.558  32.907  0.00  0.00    -0.249 OA
BRANCH  38  40
ATOM     40  O   UNL     1      -4.444  14.824  33.996  0.00  0.00    -0.479 OA
ATOM     41  H   UNL     1      -5.101  15.546  34.008  0.00  0.00    +0.295 HD
ENDBRANCH  38  40
ENDBRANCH  37  38
BRANCH  37  42
ATOM     42  C   UNL     1      -5.396  13.764  31.484  0.00  0.00    +0.049 C 
BRANCH  42  43
ATOM     43  C   UNL     1      -5.634  14.006  29.988  0.00  0.00    +0.123 C 
BRANCH  43  44
ATOM     44  C   UNL     1      -5.889  12.705  29.262  0.00  0.00    +0.305 C 
ATOM     45  O   UNL     1      -5.720  11.596  29.742  0.00  0.00    -0.251 OA
BRANCH  44  46
ATOM     46  O   UNL     1      -6.310  12.892  27.992  0.00  0.00    -0.481 OA
ATOM     47  H   UNL     1      -7.156  13.373  27.912  0.00  0.00    +0.295 HD
ENDBRANCH  44  46
ENDBRANCH  43  44
ENDBRANCH  42  43
ENDBRANCH  37  42
ENDBRANCH  35  37
ENDBRANCH  31  33
ENDBRANCH  30  31
ENDBRANCH  26  30
ENDBRANCH  25  28
ENDBRANCH   1  25
TORSDOF 20
