REMARK VINA RESULT:    -5.395      2.246      3.822
REMARK INTER + INTRA:         -11.718
REMARK INTER:                  -8.728
REMARK INTRA:                  -2.989
REMARK UNBOUND:                -2.381
REMARK  Name = lig_assembled_7.pdb
REMARK  19 active torsions:
REMARK  status: ('A' for Active; 'I' for Inactive)
REMARK    1  A    between atoms: _2  and  _9
REMARK    2  A    between atoms: _4  and  _21
REMARK    3  A    between atoms: _5  and  _16
REMARK    4  A    between atoms: _6  and  _7
REMARK    5  A    between atoms: _6  and  _21
REMARK    6  A    between atoms: _10  and  _11
REMARK    7  A    between atoms: _13  and  _14
REMARK    8  A    between atoms: _17  and  _37
REMARK    9  A    between atoms: _19  and  _25
REMARK   10  A    between atoms: _20  and  _24
REMARK   11  A    between atoms: _24  and  _25
REMARK   12  A    between atoms: _27  and  _28
REMARK   13  A    between atoms: _29  and  _30
REMARK   14  A    between atoms: _31  and  _33
REMARK   15  A    between atoms: _33  and  _34
REMARK   16  A    between atoms: _33  and  _35
REMARK   17  A    between atoms: _35  and  _36
REMARK   18  A    between atoms: _35  and  _37
REMARK   19  A    between atoms: _38  and  _40
REMARK                            x       y       z     vdW  Elec       q    Type
REMARK                         _______ _______ _______ _____ _____    ______ ____
ROOT
ATOM      1  C   UNL     1      -2.908  11.772  24.800  0.00  0.00    +0.163 C 
ENDROOT
BRANCH   1   2
ATOM      2  O   UNL     1      -3.192  11.688  26.206  0.00  0.00    -0.388 OA
ATOM      3  H   UNL     1      -4.110  11.923  26.363  0.00  0.00    +0.210 HD
ENDBRANCH   1   2
BRANCH   1   4
ATOM      4  C   UNL     1      -3.159  13.190  24.300  0.00  0.00    +0.141 C 
BRANCH   4   7
ATOM      5  C   UNL     1      -4.336  14.251  22.404  0.00  0.00    +0.401 C 
ATOM      6  O   UNL     1      -3.657  15.281  22.437  0.00  0.00    -0.226 OA
ATOM      7  N   UNL     1      -4.175  13.226  23.242  0.00  0.00    -0.279 N 
ATOM      8  H   UNL     1      -4.788  12.429  23.142  0.00  0.00    +0.152 HD
BRANCH   5   9
ATOM      9  O   UNL     1      -5.366  14.130  21.420  0.00  0.00    -0.444 OA
BRANCH   9  10
ATOM     10  C   UNL     1      -5.808  12.771  21.357  0.00  0.00    +0.292 C 
BRANCH  10  12
ATOM     11  N   UNL     1      -6.779  12.352  19.131  0.00  0.00    -0.131 NA
ATOM     12  C   UNL     1      -5.716  12.267  19.975  0.00  0.00    +0.121 A 
ATOM     13  C   UNL     1      -4.662  11.678  19.305  0.00  0.00    +0.143 A 
ATOM     14  N   UNL     1      -5.150  11.372  18.052  0.00  0.00    -0.219 N 
ATOM     15  N   UNL     1      -6.422  11.836  17.966  0.00  0.00    -0.060 NA
BRANCH  14  16
ATOM     16  C   UNL     1      -4.509  10.700  16.960  0.00  0.00    +0.073 A 
ATOM     17  C   UNL     1      -3.894  11.471  15.928  0.00  0.00    -0.024 A 
ATOM     18  C   UNL     1      -3.259  10.817  14.850  0.00  0.00    +0.008 A 
ATOM     19  C   UNL     1      -3.207   9.428  14.768  0.00  0.00    -0.050 A 
ATOM     20  C   UNL     1      -2.523   8.766  13.610  0.00  0.00    +0.044 C 
ATOM     21  C   UNL     1      -3.807   8.680  15.778  0.00  0.00    +0.008 A 
ATOM     22  C   UNL     1      -3.818  12.982  15.915  0.00  0.00    +0.046 C 
ATOM     23  C   UNL     1      -4.479   9.284  16.867  0.00  0.00    -0.024 A 
ATOM     24  C   UNL     1      -5.164   8.297  17.777  0.00  0.00    +0.046 C 
ENDBRANCH  14  16
ENDBRANCH  10  12
ENDBRANCH   9  10
ENDBRANCH   5   9
ENDBRANCH   4   7
ENDBRANCH   1   4
BRANCH   1  25
ATOM     25  C   UNL     1      -3.778  10.784  24.004  0.00  0.00    +0.175 C 
BRANCH  25  26
ATOM     26  C   UNL     1      -4.152   9.546  24.831  0.00  0.00    +0.176 C 
ATOM     27  O   UNL     1      -2.919   8.909  25.266  0.00  0.00    -0.332 OA
ATOM     28  C   UNL     1      -3.080   7.761  26.162  0.00  0.00    +0.277 C 
ATOM     29  C   UNL     1      -4.018   6.705  25.527  0.00  0.00    +0.110 C 
ATOM     30  C   UNL     1      -5.330   7.341  25.020  0.00  0.00    +0.143 C 
ATOM     31  C   UNL     1      -5.045   8.527  24.099  0.00  0.00    +0.133 C 
BRANCH  31  32
ATOM     32  N   UNL     1      -6.301   9.177  23.693  0.00  0.00    -0.308 N 
ATOM     33  H   UNL     1      -6.890   9.561  24.419  0.00  0.00    +0.149 HD
ATOM     34  C   UNL     1      -6.714   9.294  22.428  0.00  0.00    +0.210 C 
ATOM     35  C   UNL     1      -5.807   8.677  21.347  0.00  0.00    +0.109 C 
ATOM     36  O   UNL     1      -7.764   9.857  22.116  0.00  0.00    -0.276 OA
ENDBRANCH  31  32
BRANCH  28  37
ATOM     37  C   UNL     1      -3.653   8.206  27.524  0.00  0.00    +0.414 C 
ATOM     38  O   UNL     1      -3.432   9.340  27.949  0.00  0.00    -0.240 OA
ATOM     39  O   UNL     1      -4.335   7.433  28.197  0.00  0.00    -0.240 OA
ENDBRANCH  28  37
BRANCH  30  40
ATOM     40  O   UNL     1      -6.095   6.366  24.310  0.00  0.00    -0.390 OA
ATOM     41  H   UNL     1      -5.549   5.963  23.630  0.00  0.00    +0.210 HD
ENDBRANCH  30  40
BRANCH  28  42
ATOM     42  O   UNL     1      -1.775   7.156  26.356  0.00  0.00    -0.343 OA
ATOM     43  C   UNL     1      -1.788   5.717  26.536  0.00  0.00    +0.198 C 
ENDBRANCH  28  42
ENDBRANCH  25  26
BRANCH  25  44
ATOM     44  O   UNL     1      -3.101  10.388  22.795  0.00  0.00    -0.387 OA
ATOM     45  H   UNL     1      -3.436   9.537  22.503  0.00  0.00    +0.210 HD
ENDBRANCH  25  44
ENDBRANCH   1  25
TORSDOF 14
