REMARK VINA RESULT:    -4.262      2.303      6.251
REMARK INTER + INTRA:         -10.791
REMARK INTER:                  -8.140
REMARK INTRA:                  -2.652
REMARK UNBOUND:                -3.040
REMARK  Name = lig_assembled_1.pdb
REMARK  18 active torsions:
REMARK  status: ('A' for Active; 'I' for Inactive)
REMARK    1  A    between atoms: _2  and  _9
REMARK    2  A    between atoms: _4  and  _15
REMARK    3  A    between atoms: _5  and  _9
REMARK    4  A    between atoms: _5  and  _10
REMARK    5  A    between atoms: _6  and  _7
REMARK    6  A    between atoms: _6  and  _15
REMARK    7  A    between atoms: _11  and  _31
REMARK    8  A    between atoms: _13  and  _19
REMARK    9  A    between atoms: _14  and  _18
REMARK   10  A    between atoms: _18  and  _19
REMARK   11  A    between atoms: _21  and  _22
REMARK   12  A    between atoms: _23  and  _24
REMARK   13  A    between atoms: _25  and  _27
REMARK   14  A    between atoms: _27  and  _28
REMARK   15  A    between atoms: _27  and  _29
REMARK   16  A    between atoms: _29  and  _30
REMARK   17  A    between atoms: _29  and  _31
REMARK   18  A    between atoms: _32  and  _34
REMARK                            x       y       z     vdW  Elec       q    Type
REMARK                         _______ _______ _______ _____ _____    ______ ____
ROOT
ATOM      1  C   UNL     1      -4.028  11.039  30.233  0.00  0.00    +0.175 C 
ENDROOT
BRANCH   1   2
ATOM      2  C   UNL     1      -4.223  12.539  30.498  0.00  0.00    +0.176 C 
ATOM      3  O   UNL     1      -4.419  12.718  31.927  0.00  0.00    -0.332 OA
ATOM      4  C   UNL     1      -4.518  14.108  32.384  0.00  0.00    +0.277 C 
ATOM      5  C   UNL     1      -5.628  14.856  31.605  0.00  0.00    +0.110 C 
ATOM      6  C   UNL     1      -5.480  14.668  30.081  0.00  0.00    +0.143 C 
ATOM      7  C   UNL     1      -5.383  13.185  29.718  0.00  0.00    +0.133 C 
BRANCH   7   8
ATOM      8  N   UNL     1      -5.154  13.023  28.273  0.00  0.00    -0.308 N 
ATOM      9  H   UNL     1      -4.255  13.298  27.904  0.00  0.00    +0.149 HD
ATOM     10  C   UNL     1      -6.058  12.535  27.419  0.00  0.00    +0.210 C 
ATOM     11  C   UNL     1      -7.427  12.149  28.008  0.00  0.00    +0.109 C 
ATOM     12  O   UNL     1      -5.834  12.396  26.216  0.00  0.00    -0.276 OA
ENDBRANCH   7   8
BRANCH   4  13
ATOM     13  C   UNL     1      -3.174  14.842  32.198  0.00  0.00    +0.414 C 
ATOM     14  O   UNL     1      -2.117  14.212  32.208  0.00  0.00    -0.240 OA
ATOM     15  O   UNL     1      -3.146  16.063  32.037  0.00  0.00    -0.240 OA
ENDBRANCH   4  13
BRANCH   4  16
ATOM     16  O   UNL     1      -4.876  14.094  33.790  0.00  0.00    -0.343 OA
ATOM     17  C   UNL     1      -6.018  13.265  34.123  0.00  0.00    +0.198 C 
ENDBRANCH   4  16
BRANCH   6  18
ATOM     18  O   UNL     1      -6.603  15.243  29.413  0.00  0.00    -0.390 OA
ATOM     19  H   UNL     1      -6.299  15.902  28.784  0.00  0.00    +0.210 HD
ENDBRANCH   6  18
ENDBRANCH   1   2
BRANCH   1  20
ATOM     20  O   UNL     1      -5.307  10.387  30.101  0.00  0.00    -0.387 OA
ATOM     21  H   UNL     1      -5.653  10.535  29.218  0.00  0.00    +0.210 HD
ENDBRANCH   1  20
BRANCH   1  22
ATOM     22  C   UNL     1      -3.197  10.359  31.335  0.00  0.00    +0.163 C 
BRANCH  22  23
ATOM     23  O   UNL     1      -2.057  11.159  31.687  0.00  0.00    -0.388 OA
ATOM     24  H   UNL     1      -2.191  11.546  32.555  0.00  0.00    +0.210 HD
ENDBRANCH  22  23
BRANCH  22  25
ATOM     25  C   UNL     1      -2.743   8.984  30.857  0.00  0.00    +0.141 C 
BRANCH  25  28
ATOM     26  C   UNL     1      -2.021   7.912  28.751  0.00  0.00    +0.401 C 
ATOM     27  O   UNL     1      -1.613   6.887  29.303  0.00  0.00    -0.226 OA
ATOM     28  N   UNL     1      -2.558   8.945  29.401  0.00  0.00    -0.279 N 
ATOM     29  H   UNL     1      -2.855   9.746  28.861  0.00  0.00    +0.152 HD
BRANCH  26  30
ATOM     30  O   UNL     1      -1.918   8.023  27.329  0.00  0.00    -0.444 OA
BRANCH  30  31
ATOM     31  C   UNL     1      -3.200   8.342  26.781  0.00  0.00    +0.292 C 
BRANCH  31  33
ATOM     32  N   UNL     1      -3.281   9.371  24.529  0.00  0.00    -0.131 NA
ATOM     33  C   UNL     1      -3.099   9.506  25.880  0.00  0.00    +0.120 A 
ATOM     34  C   UNL     1      -2.829  10.825  26.168  0.00  0.00    +0.137 A 
ATOM     35  N   UNL     1      -2.856  11.438  24.951  0.00  0.00    -0.249 N 
ATOM     36  N   UNL     1      -3.122  10.562  23.968  0.00  0.00    -0.065 NA
BRANCH  35  37
ATOM     37  C   UNL     1      -2.647  12.837  24.655  0.00  0.00    +0.173 C 
BRANCH  37  38
ATOM     38  C   UNL     1      -3.651  13.380  23.645  0.00  0.00    +0.179 C 
BRANCH  38  39
ATOM     39  O   UNL     1      -2.990  13.977  22.531  0.00  0.00    -0.393 OA
ATOM     40  H   UNL     1      -3.419  13.627  21.726  0.00  0.00    +0.209 HD
ENDBRANCH  38  39
ENDBRANCH  37  38
ENDBRANCH  35  37
ENDBRANCH  31  33
ENDBRANCH  30  31
ENDBRANCH  26  30
ENDBRANCH  25  28
ENDBRANCH  22  25
ENDBRANCH   1  22
TORSDOF 16
