REMARK VINA RESULT:    -5.160      3.933      7.346
REMARK INTER + INTRA:         -12.013
REMARK INTER:                  -8.180
REMARK INTRA:                  -3.833
REMARK UNBOUND:                -2.779
REMARK  Name = lig_assembled_39.pdb
REMARK  17 active torsions:
REMARK  status: ('A' for Active; 'I' for Inactive)
REMARK    1  A    between atoms: _2  and  _9
REMARK    2  A    between atoms: _4  and  _19
REMARK    3  A    between atoms: _6  and  _7
REMARK    4  A    between atoms: _6  and  _19
REMARK    5  A    between atoms: _9  and  _10
REMARK    6  A    between atoms: _15  and  _35
REMARK    7  A    between atoms: _17  and  _23
REMARK    8  A    between atoms: _18  and  _22
REMARK    9  A    between atoms: _22  and  _23
REMARK   10  A    between atoms: _25  and  _26
REMARK   11  A    between atoms: _27  and  _28
REMARK   12  A    between atoms: _29  and  _31
REMARK   13  A    between atoms: _31  and  _32
REMARK   14  A    between atoms: _31  and  _33
REMARK   15  A    between atoms: _33  and  _34
REMARK   16  A    between atoms: _33  and  _35
REMARK   17  A    between atoms: _36  and  _38
REMARK                            x       y       z     vdW  Elec       q    Type
REMARK                         _______ _______ _______ _____ _____    ______ ____
ROOT
ATOM      1  C   UNL     1      -6.922   8.682  24.109  0.00  0.00    +0.163 C 
ENDROOT
BRANCH   1   2
ATOM      2  O   UNL     1      -6.323   8.812  25.408  0.00  0.00    -0.388 OA
ATOM      3  H   UNL     1      -6.906   8.431  26.070  0.00  0.00    +0.210 HD
ENDBRANCH   1   2
BRANCH   1   4
ATOM      4  C   UNL     1      -6.407   7.423  23.420  0.00  0.00    +0.141 C 
BRANCH   4   7
ATOM      5  C   UNL     1      -3.973   7.008  23.499  0.00  0.00    +0.401 C 
ATOM      6  O   UNL     1      -3.755   7.519  22.398  0.00  0.00    -0.226 OA
ATOM      7  N   UNL     1      -5.183   6.915  24.051  0.00  0.00    -0.279 N 
ATOM      8  H   UNL     1      -5.262   6.470  24.955  0.00  0.00    +0.152 HD
BRANCH   5   9
ATOM      9  O   UNL     1      -2.877   6.473  24.246  0.00  0.00    -0.444 OA
BRANCH   9  10
ATOM     10  C   UNL     1      -3.366   5.874  25.449  0.00  0.00    +0.292 C 
BRANCH  10  12
ATOM     11  N   UNL     1      -1.769   7.420  26.540  0.00  0.00    -0.131 NA
ATOM     12  C   UNL     1      -2.872   6.611  26.627  0.00  0.00    +0.120 A 
ATOM     13  C   UNL     1      -3.367   6.659  27.911  0.00  0.00    +0.137 A 
ATOM     14  N   UNL     1      -2.571   7.577  28.532  0.00  0.00    -0.247 N 
ATOM     15  N   UNL     1      -1.575   7.984  27.724  0.00  0.00    -0.065 NA
BRANCH  14  16
ATOM     16  C   UNL     1      -2.741   8.158  29.856  0.00  0.00    +0.181 C 
BRANCH  16  17
ATOM     17  C   UNL     1      -3.655   9.370  29.865  0.00  0.00    -0.012 A 
ATOM     18  C   UNL     1      -3.145  10.667  29.651  0.00  0.00    +0.006 A 
ATOM     19  C   UNL     1      -3.974  11.791  29.662  0.00  0.00    +0.000 A 
ATOM     20  C   UNL     1      -5.332  11.650  29.913  0.00  0.00    +0.001 A 
ATOM     21  C   UNL     1      -5.858  10.386  30.171  0.00  0.00    +0.015 A 
ATOM     22  C   UNL     1      -5.027   9.256  30.160  0.00  0.00    +0.023 A 
ATOM     23 BR   UNL     1      -5.846   7.593  30.584  0.00  0.00    -0.050 Br
ENDBRANCH  16  17
ENDBRANCH  14  16
ENDBRANCH  10  12
ENDBRANCH   9  10
ENDBRANCH   5   9
ENDBRANCH   4   7
ENDBRANCH   1   4
BRANCH   1  24
ATOM     24  C   UNL     1      -6.612   9.910  23.235  0.00  0.00    +0.175 C 
BRANCH  24  25
ATOM     25  C   UNL     1      -5.224  10.496  23.534  0.00  0.00    +0.176 C 
ATOM     26  O   UNL     1      -5.369  11.458  24.615  0.00  0.00    -0.332 OA
ATOM     27  C   UNL     1      -4.122  12.047  25.111  0.00  0.00    +0.277 C 
ATOM     28  C   UNL     1      -3.324  12.684  23.947  0.00  0.00    +0.110 C 
ATOM     29  C   UNL     1      -3.171  11.709  22.761  0.00  0.00    +0.143 C 
ATOM     30  C   UNL     1      -4.529  11.155  22.328  0.00  0.00    +0.133 C 
BRANCH  30  31
ATOM     31  N   UNL     1      -4.361  10.162  21.255  0.00  0.00    -0.308 N 
ATOM     32  H   UNL     1      -3.855   9.314  21.472  0.00  0.00    +0.149 HD
ATOM     33  C   UNL     1      -4.834  10.307  20.015  0.00  0.00    +0.210 C 
ATOM     34  C   UNL     1      -5.578  11.621  19.710  0.00  0.00    +0.109 C 
ATOM     35  O   UNL     1      -4.692   9.452  19.140  0.00  0.00    -0.276 OA
ENDBRANCH  30  31
BRANCH  27  36
ATOM     36  C   UNL     1      -3.252  10.980  25.809  0.00  0.00    +0.414 C 
ATOM     37  O   UNL     1      -2.028  11.099  25.836  0.00  0.00    -0.240 OA
ATOM     38  O   UNL     1      -3.775  10.002  26.345  0.00  0.00    -0.240 OA
ENDBRANCH  27  36
BRANCH  27  39
ATOM     39  O   UNL     1      -4.464  13.093  26.057  0.00  0.00    -0.343 OA
ATOM     40  C   UNL     1      -5.884  13.262  26.295  0.00  0.00    +0.198 C 
ENDBRANCH  27  39
BRANCH  29  41
ATOM     41  O   UNL     1      -2.565  12.384  21.658  0.00  0.00    -0.390 OA
ATOM     42  H   UNL     1      -2.941  12.057  20.837  0.00  0.00    +0.210 HD
ENDBRANCH  29  41
ENDBRANCH  24  25
BRANCH  24  43
ATOM     43  O   UNL     1      -7.626  10.918  23.415  0.00  0.00    -0.387 OA
ATOM     44  H   UNL     1      -8.348  10.556  23.936  0.00  0.00    +0.210 HD
ENDBRANCH  24  43
ENDBRANCH   1  24
TORSDOF 15
