REMARK VINA RESULT:    -3.761      2.913      7.065
REMARK INTER + INTRA:         -12.216
REMARK INTER:                  -7.922
REMARK INTRA:                  -4.295
REMARK UNBOUND:                -4.498
REMARK  Name = lig_assembled_33.pdb
REMARK  22 active torsions:
REMARK  status: ('A' for Active; 'I' for Inactive)
REMARK    1  A    between atoms: _2  and  _9
REMARK    2  A    between atoms: _4  and  _20
REMARK    3  A    between atoms: _5  and  _13
REMARK    4  A    between atoms: _5  and  _14
REMARK    5  A    between atoms: _6  and  _7
REMARK    6  A    between atoms: _6  and  _20
REMARK    7  A    between atoms: _9  and  _10
REMARK    8  A    between atoms: _10  and  _11
REMARK    9  A    between atoms: _11  and  _12
REMARK   10  A    between atoms: _12  and  _13
REMARK   11  A    between atoms: _16  and  _36
REMARK   12  A    between atoms: _18  and  _24
REMARK   13  A    between atoms: _19  and  _23
REMARK   14  A    between atoms: _23  and  _24
REMARK   15  A    between atoms: _26  and  _27
REMARK   16  A    between atoms: _28  and  _29
REMARK   17  A    between atoms: _30  and  _32
REMARK   18  A    between atoms: _32  and  _33
REMARK   19  A    between atoms: _32  and  _34
REMARK   20  A    between atoms: _34  and  _35
REMARK   21  A    between atoms: _34  and  _36
REMARK   22  A    between atoms: _37  and  _39
REMARK                            x       y       z     vdW  Elec       q    Type
REMARK                         _______ _______ _______ _____ _____    ______ ____
ROOT
ATOM      1  C   UNL     1      -2.026   9.486  27.442  0.00  0.00    +0.163 C 
ENDROOT
BRANCH   1   2
ATOM      2  O   UNL     1      -2.103   8.554  26.351  0.00  0.00    -0.388 OA
ATOM      3  H   UNL     1      -3.007   8.242  26.259  0.00  0.00    +0.210 HD
ENDBRANCH   1   2
BRANCH   1   4
ATOM      4  C   UNL     1      -3.213  10.464  27.415  0.00  0.00    +0.175 C 
BRANCH   4   5
ATOM      5  C   UNL     1      -4.124  10.233  26.200  0.00  0.00    +0.176 C 
ATOM      6  O   UNL     1      -4.044  11.411  25.351  0.00  0.00    -0.332 OA
ATOM      7  C   UNL     1      -4.772  11.328  24.081  0.00  0.00    +0.277 C 
ATOM      8  C   UNL     1      -6.256  10.964  24.331  0.00  0.00    +0.110 C 
ATOM      9  C   UNL     1      -6.393   9.736  25.255  0.00  0.00    +0.143 C 
ATOM     10  C   UNL     1      -5.594   9.928  26.545  0.00  0.00    +0.133 C 
BRANCH  10  11
ATOM     11  N   UNL     1      -5.661   8.717  27.378  0.00  0.00    -0.308 N 
ATOM     12  H   UNL     1      -5.288   7.859  26.995  0.00  0.00    +0.149 HD
ATOM     13  C   UNL     1      -6.183   8.676  28.606  0.00  0.00    +0.210 C 
ATOM     14  C   UNL     1      -6.767   9.994  29.151  0.00  0.00    +0.109 C 
ATOM     15  O   UNL     1      -6.213   7.651  29.287  0.00  0.00    -0.276 OA
ENDBRANCH  10  11
BRANCH   7  16
ATOM     16  C   UNL     1      -4.132  10.276  23.151  0.00  0.00    +0.414 C 
ATOM     17  O   UNL     1      -4.646  10.014  22.065  0.00  0.00    -0.240 OA
ATOM     18  O   UNL     1      -3.102   9.690  23.487  0.00  0.00    -0.240 OA
ENDBRANCH   7  16
BRANCH   9  19
ATOM     19  O   UNL     1      -7.768   9.528  25.580  0.00  0.00    -0.390 OA
ATOM     20  H   UNL     1      -8.300  10.215  25.173  0.00  0.00    +0.210 HD
ENDBRANCH   9  19
BRANCH   7  21
ATOM     21  O   UNL     1      -4.721  12.634  23.449  0.00  0.00    -0.343 OA
ATOM     22  C   UNL     1      -4.879  13.757  24.351  0.00  0.00    +0.198 C 
ENDBRANCH   7  21
ENDBRANCH   4   5
BRANCH   4  23
ATOM     23  O   UNL     1      -2.737  11.824  27.427  0.00  0.00    -0.387 OA
ATOM     24  H   UNL     1      -1.949  11.883  27.973  0.00  0.00    +0.210 HD
ENDBRANCH   4  23
ENDBRANCH   1   4
BRANCH   1  25
ATOM     25  C   UNL     1      -2.014   8.736  28.769  0.00  0.00    +0.141 C 
BRANCH  25  28
ATOM     26  C   UNL     1      -3.358   8.751  30.843  0.00  0.00    +0.401 C 
ATOM     27  O   UNL     1      -3.141   7.566  31.104  0.00  0.00    -0.226 OA
ATOM     28  N   UNL     1      -2.876   9.378  29.769  0.00  0.00    -0.279 N 
ATOM     29  H   UNL     1      -3.117  10.350  29.636  0.00  0.00    +0.152 HD
BRANCH  26  30
ATOM     30  O   UNL     1      -4.176   9.519  31.729  0.00  0.00    -0.444 OA
BRANCH  30  31
ATOM     31  C   UNL     1      -3.427   9.858  32.898  0.00  0.00    +0.292 C 
BRANCH  31  33
ATOM     32  N   UNL     1      -2.009  11.745  32.157  0.00  0.00    -0.131 NA
ATOM     33  C   UNL     1      -3.076  11.290  32.887  0.00  0.00    +0.120 A 
ATOM     34  C   UNL     1      -3.665  12.356  33.534  0.00  0.00    +0.137 A 
ATOM     35  N   UNL     1      -2.916  13.426  33.147  0.00  0.00    -0.251 N 
ATOM     36  N   UNL     1      -1.913  13.054  32.336  0.00  0.00    -0.065 NA
BRANCH  35  37
ATOM     37  C   UNL     1      -3.083  14.817  33.516  0.00  0.00    +0.145 C 
BRANCH  37  38
ATOM     38  C   UNL     1      -4.277  15.458  32.812  0.00  0.00    +0.023 C 
BRANCH  38  39
ATOM     39  C   UNL     1      -3.900  16.090  31.470  0.00  0.00    +0.002 C 
BRANCH  39  40
ATOM     40  C   UNL     1      -4.834  15.576  30.371  0.00  0.00    +0.011 C 
BRANCH  40  41
ATOM     41  C   UNL     1      -5.348  14.164  30.644  0.00  0.00    +0.120 C 
BRANCH  41  42
ATOM     42  C   UNL     1      -4.879  13.196  29.580  0.00  0.00    +0.305 C 
ATOM     43  O   UNL     1      -5.274  13.168  28.426  0.00  0.00    -0.251 OA
BRANCH  42  44
ATOM     44  O   UNL     1      -3.944  12.335  30.044  0.00  0.00    -0.481 OA
ATOM     45  H   UNL     1      -3.038  12.539  29.748  0.00  0.00    +0.295 HD
ENDBRANCH  42  44
ENDBRANCH  41  42
ENDBRANCH  40  41
ENDBRANCH  39  40
ENDBRANCH  38  39
ENDBRANCH  37  38
ENDBRANCH  35  37
ENDBRANCH  31  33
ENDBRANCH  30  31
ENDBRANCH  26  30
ENDBRANCH  25  28
ENDBRANCH   1  25
TORSDOF 20
