REMARK VINA RESULT:    -4.206      2.526      3.749
REMARK INTER + INTRA:         -11.204
REMARK INTER:                  -8.412
REMARK INTRA:                  -2.792
REMARK UNBOUND:                -3.679
REMARK  Name = lig_assembled_0.pdb
REMARK  17 active torsions:
REMARK  status: ('A' for Active; 'I' for Inactive)
REMARK    1  A    between atoms: _2  and  _10
REMARK    2  A    between atoms: _5  and  _21
REMARK    3  A    between atoms: _7  and  _8
REMARK    4  A    between atoms: _7  and  _21
REMARK    5  A    between atoms: _11  and  _12
REMARK    6  A    between atoms: _17  and  _37
REMARK    7  A    between atoms: _19  and  _25
REMARK    8  A    between atoms: _20  and  _24
REMARK    9  A    between atoms: _24  and  _25
REMARK   10  A    between atoms: _27  and  _28
REMARK   11  A    between atoms: _29  and  _30
REMARK   12  A    between atoms: _31  and  _33
REMARK   13  A    between atoms: _33  and  _34
REMARK   14  A    between atoms: _33  and  _35
REMARK   15  A    between atoms: _35  and  _36
REMARK   16  A    between atoms: _35  and  _37
REMARK   17  A    between atoms: _38  and  _40
REMARK                            x       y       z     vdW  Elec       q    Type
REMARK                         _______ _______ _______ _____ _____    ______ ____
ROOT
ATOM      1  C   UNL     1      -3.961   7.792  23.537  0.00  0.00    +0.163 C 
ENDROOT
BRANCH   1   2
ATOM      2  O   UNL     1      -3.821   6.740  22.568  0.00  0.00    -0.388 OA
ATOM      3  H   UNL     1      -3.394   5.983  22.977  0.00  0.00    +0.210 HD
ENDBRANCH   1   2
BRANCH   1   4
ATOM      4  C   UNL     1      -4.306   7.204  24.901  0.00  0.00    +0.141 C 
BRANCH   4   7
ATOM      5  C   UNL     1      -2.753   8.070  26.617  0.00  0.00    +0.401 C 
ATOM      6  O   UNL     1      -1.856   7.269  26.345  0.00  0.00    -0.226 OA
ATOM      7  N   UNL     1      -3.933   8.107  25.997  0.00  0.00    -0.279 N 
ATOM      8  H   UNL     1      -4.609   8.795  26.297  0.00  0.00    +0.152 HD
BRANCH   5   9
ATOM      9  O   UNL     1      -2.539   9.025  27.660  0.00  0.00    -0.444 OA
BRANCH   9  10
ATOM     10  C   UNL     1      -3.345   8.684  28.792  0.00  0.00    +0.292 C 
BRANCH  10  12
ATOM     11  N   UNL     1      -4.696   9.823  30.513  0.00  0.00    -0.131 NA
ATOM     12  C   UNL     1      -3.855   9.905  29.445  0.00  0.00    +0.121 A 
ATOM     13  C   UNL     1      -3.603  11.229  29.169  0.00  0.00    +0.143 A 
ATOM     14  N   UNL     1      -4.395  11.936  30.045  0.00  0.00    -0.219 N 
ATOM     15  N   UNL     1      -4.979  11.056  30.904  0.00  0.00    -0.060 NA
BRANCH  14  16
ATOM     16  C   UNL     1      -4.565  13.338  30.224  0.00  0.00    +0.079 A 
ATOM     17  C   UNL     1      -3.851  14.122  31.152  0.00  0.00    +0.062 A 
ATOM     18  C   UNL     1      -4.151  15.498  31.253  0.00  0.00    +0.015 A 
ATOM     19  C   UNL     1      -5.142  16.086  30.467  0.00  0.00    +0.001 A 
ATOM     20  C   UNL     1      -5.833  15.317  29.542  0.00  0.00    +0.002 A 
ATOM     21  C   UNL     1      -5.541  13.960  29.412  0.00  0.00    +0.028 A 
BRANCH  17  22
ATOM     22  C   UNL     1      -2.664  13.642  31.914  0.00  0.00    +0.244 C 
ATOM     23  O   UNL     1      -2.767  12.962  32.923  0.00  0.00    -0.270 OA
ATOM     24  N   UNL     1      -1.425  13.954  31.421  0.00  0.00    -0.325 N 
ATOM     25  H   UNL     1      -0.624  13.580  31.916  0.00  0.00    +0.145 HD
ATOM     26  H   UNL     1      -1.255  14.498  30.587  0.00  0.00    +0.145 HD
ENDBRANCH  17  22
ENDBRANCH  14  16
ENDBRANCH  10  12
ENDBRANCH   9  10
ENDBRANCH   5   9
ENDBRANCH   4   7
ENDBRANCH   1   4
BRANCH   1  27
ATOM     27  C   UNL     1      -5.056   8.787  23.114  0.00  0.00    +0.175 C 
BRANCH  27  28
ATOM     28  C   UNL     1      -4.583  10.244  23.214  0.00  0.00    +0.176 C 
ATOM     29  O   UNL     1      -4.882  10.720  24.556  0.00  0.00    -0.332 OA
ATOM     30  C   UNL     1      -4.403  12.069  24.871  0.00  0.00    +0.277 C 
ATOM     31  C   UNL     1      -4.925  13.086  23.828  0.00  0.00    +0.110 C 
ATOM     32  C   UNL     1      -4.658  12.609  22.384  0.00  0.00    +0.143 C 
ATOM     33  C   UNL     1      -5.195  11.194  22.167  0.00  0.00    +0.133 C 
BRANCH  33  34
ATOM     34  N   UNL     1      -4.859  10.717  20.816  0.00  0.00    -0.308 N 
ATOM     35  H   UNL     1      -3.881  10.650  20.569  0.00  0.00    +0.149 HD
ATOM     36  C   UNL     1      -5.761  10.367  19.895  0.00  0.00    +0.210 C 
ATOM     37  C   UNL     1      -7.242  10.504  20.294  0.00  0.00    +0.109 C 
ATOM     38  O   UNL     1      -5.450   9.957  18.777  0.00  0.00    -0.276 OA
ENDBRANCH  33  34
BRANCH  30  39
ATOM     39  C   UNL     1      -2.861  12.108  24.904  0.00  0.00    +0.414 C 
ATOM     40  O   UNL     1      -2.227  11.178  25.401  0.00  0.00    -0.240 OA
ATOM     41  O   UNL     1      -2.251  13.069  24.432  0.00  0.00    -0.240 OA
ENDBRANCH  30  39
BRANCH  32  42
ATOM     42  O   UNL     1      -5.287  13.497  21.460  0.00  0.00    -0.390 OA
ATOM     43  H   UNL     1      -4.635  13.823  20.834  0.00  0.00    +0.210 HD
ENDBRANCH  32  42
BRANCH  30  44
ATOM     44  O   UNL     1      -4.928  12.438  26.173  0.00  0.00    -0.343 OA
ATOM     45  C   UNL     1      -6.127  11.728  26.573  0.00  0.00    +0.198 C 
ENDBRANCH  30  44
ENDBRANCH  27  28
BRANCH  27  46
ATOM     46  O   UNL     1      -6.239   8.592  23.914  0.00  0.00    -0.387 OA
ATOM     47  H   UNL     1      -6.188   7.743  24.361  0.00  0.00    +0.210 HD
ENDBRANCH  27  46
ENDBRANCH   1  27
TORSDOF 15
