REMARK VINA RESULT:    -4.394      2.529      5.800
REMARK INTER + INTRA:         -11.746
REMARK INTER:                  -8.221
REMARK INTRA:                  -3.525
REMARK UNBOUND:                -3.114
REMARK  Name = lig_assembled_10.pdb
REMARK  21 active torsions:
REMARK  status: ('A' for Active; 'I' for Inactive)
REMARK    1  A    between atoms: _2  and  _9
REMARK    2  A    between atoms: _4  and  _20
REMARK    3  A    between atoms: _5  and  _9
REMARK    4  A    between atoms: _5  and  _12
REMARK    5  A    between atoms: _6  and  _7
REMARK    6  A    between atoms: _6  and  _20
REMARK    7  A    between atoms: _9  and  _10
REMARK    8  A    between atoms: _10  and  _11
REMARK    9  A    between atoms: _11  and  _14
REMARK   10  A    between atoms: _16  and  _36
REMARK   11  A    between atoms: _18  and  _24
REMARK   12  A    between atoms: _19  and  _23
REMARK   13  A    between atoms: _23  and  _24
REMARK   14  A    between atoms: _26  and  _27
REMARK   15  A    between atoms: _28  and  _29
REMARK   16  A    between atoms: _30  and  _32
REMARK   17  A    between atoms: _32  and  _33
REMARK   18  A    between atoms: _32  and  _34
REMARK   19  A    between atoms: _34  and  _35
REMARK   20  A    between atoms: _34  and  _36
REMARK   21  A    between atoms: _37  and  _39
REMARK                            x       y       z     vdW  Elec       q    Type
REMARK                         _______ _______ _______ _____ _____    ______ ____
ROOT
ATOM      1  C   UNL     1      -2.897  10.921  31.260  0.00  0.00    +0.163 C 
ENDROOT
BRANCH   1   2
ATOM      2  O   UNL     1      -1.828  11.472  32.046  0.00  0.00    -0.388 OA
ATOM      3  H   UNL     1      -1.875  11.125  32.940  0.00  0.00    +0.210 HD
ENDBRANCH   1   2
BRANCH   1   4
ATOM      4  C   UNL     1      -3.037   9.409  31.503  0.00  0.00    +0.175 C 
BRANCH   4   5
ATOM      5  C   UNL     1      -2.921   8.601  30.202  0.00  0.00    +0.176 C 
ATOM      6  O   UNL     1      -3.637   9.323  29.162  0.00  0.00    -0.332 OA
ATOM      7  C   UNL     1      -3.546   8.751  27.816  0.00  0.00    +0.277 C 
ATOM      8  C   UNL     1      -3.994   7.269  27.826  0.00  0.00    +0.110 C 
ATOM      9  C   UNL     1      -3.284   6.467  28.937  0.00  0.00    +0.143 C 
ATOM     10  C   UNL     1      -3.439   7.154  30.294  0.00  0.00    +0.133 C 
BRANCH  10  11
ATOM     11  N   UNL     1      -2.685   6.427  31.328  0.00  0.00    -0.308 N 
ATOM     12  H   UNL     1      -1.677   6.437  31.271  0.00  0.00    +0.149 HD
ATOM     13  C   UNL     1      -3.247   5.756  32.337  0.00  0.00    +0.210 C 
ATOM     14  C   UNL     1      -4.786   5.738  32.381  0.00  0.00    +0.109 C 
ATOM     15  O   UNL     1      -2.590   5.168  33.197  0.00  0.00    -0.276 OA
ENDBRANCH  10  11
BRANCH   7  16
ATOM     16  C   UNL     1      -2.104   8.850  27.275  0.00  0.00    +0.414 C 
ATOM     17  O   UNL     1      -1.235   9.425  27.929  0.00  0.00    -0.240 OA
ATOM     18  O   UNL     1      -1.810   8.355  26.187  0.00  0.00    -0.240 OA
ENDBRANCH   7  16
BRANCH   7  19
ATOM     19  O   UNL     1      -4.444   9.494  26.951  0.00  0.00    -0.343 OA
ATOM     20  C   UNL     1      -5.557   8.730  26.423  0.00  0.00    +0.198 C 
ENDBRANCH   7  19
BRANCH   9  21
ATOM     21  O   UNL     1      -3.835   5.152  29.009  0.00  0.00    -0.390 OA
ATOM     22  H   UNL     1      -3.424   4.671  29.731  0.00  0.00    +0.210 HD
ENDBRANCH   9  21
ENDBRANCH   4   5
BRANCH   4  23
ATOM     23  O   UNL     1      -4.290   9.124  32.155  0.00  0.00    -0.387 OA
ATOM     24  H   UNL     1      -4.376   9.673  32.939  0.00  0.00    +0.210 HD
ENDBRANCH   4  23
ENDBRANCH   1   4
BRANCH   1  25
ATOM     25  C   UNL     1      -4.210  11.616  31.606  0.00  0.00    +0.141 C 
BRANCH  25  28
ATOM     26  C   UNL     1      -6.149  12.359  30.265  0.00  0.00    +0.401 C 
ATOM     27  O   UNL     1      -6.279  13.424  30.872  0.00  0.00    -0.226 OA
ATOM     28  N   UNL     1      -5.212  11.451  30.546  0.00  0.00    -0.279 N 
ATOM     29  H   UNL     1      -5.191  10.603  29.998  0.00  0.00    +0.152 HD
BRANCH  26  30
ATOM     30  O   UNL     1      -7.047  12.054  29.196  0.00  0.00    -0.444 OA
BRANCH  30  31
ATOM     31  C   UNL     1      -7.085  13.149  28.277  0.00  0.00    +0.292 C 
BRANCH  31  33
ATOM     32  N   UNL     1      -7.255  12.129  26.026  0.00  0.00    -0.131 NA
ATOM     33  C   UNL     1      -6.500  12.750  26.983  0.00  0.00    +0.120 A 
ATOM     34  C   UNL     1      -5.216  12.909  26.510  0.00  0.00    +0.138 A 
ATOM     35  N   UNL     1      -5.261  12.404  25.247  0.00  0.00    -0.237 N 
ATOM     36  N   UNL     1      -6.486  11.914  24.970  0.00  0.00    -0.065 NA
BRANCH  35  37
ATOM     37  C   UNL     1      -4.239  12.326  24.215  0.00  0.00    +0.227 C 
BRANCH  37  38
ATOM     38  C   UNL     1      -2.978  11.599  24.633  0.00  0.00    +0.330 C 
ATOM     39  O   UNL     1      -2.079  12.167  25.242  0.00  0.00    -0.249 OA
BRANCH  38  40
ATOM     40  O   UNL     1      -2.896  10.283  24.347  0.00  0.00    -0.479 OA
ATOM     41  H   UNL     1      -2.051   9.826  24.592  0.00  0.00    +0.295 HD
ENDBRANCH  38  40
ENDBRANCH  37  38
BRANCH  37  42
ATOM     42  C   UNL     1      -3.940  13.661  23.521  0.00  0.00    +0.158 C 
BRANCH  42  43
ATOM     43  C   UNL     1      -4.056  13.561  22.026  0.00  0.00    +0.307 C 
ATOM     44  O   UNL     1      -5.092  13.777  21.410  0.00  0.00    -0.251 OA
BRANCH  43  45
ATOM     45  O   UNL     1      -2.890  13.288  21.411  0.00  0.00    -0.481 OA
ATOM     46  H   UNL     1      -2.776  13.701  20.532  0.00  0.00    +0.295 HD
ENDBRANCH  43  45
ENDBRANCH  42  43
ENDBRANCH  37  42
ENDBRANCH  35  37
ENDBRANCH  31  33
ENDBRANCH  30  31
ENDBRANCH  26  30
ENDBRANCH  25  28
ENDBRANCH   1  25
TORSDOF 19
