REMARK VINA RESULT:    -4.340      3.225      8.154
REMARK INTER + INTRA:         -11.397
REMARK INTER:                  -8.431
REMARK INTRA:                  -2.966
REMARK UNBOUND:                -3.505
REMARK  Name = lig_assembled_22.pdb
REMARK  20 active torsions:
REMARK  status: ('A' for Active; 'I' for Inactive)
REMARK    1  A    between atoms: _2  and  _9
REMARK    2  A    between atoms: _4  and  _18
REMARK    3  A    between atoms: _5  and  _9
REMARK    4  A    between atoms: _5  and  _12
REMARK    5  A    between atoms: _6  and  _7
REMARK    6  A    between atoms: _6  and  _18
REMARK    7  A    between atoms: _9  and  _10
REMARK    8  A    between atoms: _9  and  _11
REMARK    9  A    between atoms: _14  and  _34
REMARK   10  A    between atoms: _16  and  _22
REMARK   11  A    between atoms: _17  and  _21
REMARK   12  A    between atoms: _21  and  _22
REMARK   13  A    between atoms: _24  and  _25
REMARK   14  A    between atoms: _26  and  _27
REMARK   15  A    between atoms: _28  and  _30
REMARK   16  A    between atoms: _30  and  _31
REMARK   17  A    between atoms: _30  and  _32
REMARK   18  A    between atoms: _32  and  _33
REMARK   19  A    between atoms: _32  and  _34
REMARK   20  A    between atoms: _35  and  _37
REMARK                            x       y       z     vdW  Elec       q    Type
REMARK                         _______ _______ _______ _____ _____    ______ ____
ROOT
ATOM      1  C   UNL     1      -1.936  10.345  26.927  0.00  0.00    +0.163 C 
ENDROOT
BRANCH   1   2
ATOM      2  O   UNL     1      -1.997  10.136  25.507  0.00  0.00    -0.388 OA
ATOM      3  H   UNL     1      -2.517  10.835  25.102  0.00  0.00    +0.210 HD
ENDBRANCH   1   2
BRANCH   1   4
ATOM      4  C   UNL     1      -1.761   9.010  27.643  0.00  0.00    +0.141 C 
BRANCH   4   7
ATOM      5  C   UNL     1      -2.648   7.929  29.681  0.00  0.00    +0.401 C 
ATOM      6  O   UNL     1      -1.682   7.174  29.814  0.00  0.00    -0.226 OA
ATOM      7  N   UNL     1      -2.770   8.815  28.692  0.00  0.00    -0.279 N 
ATOM      8  H   UNL     1      -3.604   9.384  28.662  0.00  0.00    +0.152 HD
BRANCH   5   9
ATOM      9  O   UNL     1      -3.715   7.866  30.631  0.00  0.00    -0.444 OA
BRANCH   9  10
ATOM     10  C   UNL     1      -3.229   8.249  31.921  0.00  0.00    +0.292 C 
BRANCH  10  12
ATOM     11  N   UNL     1      -4.873  10.029  32.398  0.00  0.00    -0.131 NA
ATOM     12  C   UNL     1      -3.574   9.656  32.199  0.00  0.00    +0.120 A 
ATOM     13  C   UNL     1      -2.766  10.768  32.306  0.00  0.00    +0.138 A 
ATOM     14  N   UNL     1      -3.634  11.789  32.572  0.00  0.00    -0.235 N 
ATOM     15  N   UNL     1      -4.900  11.333  32.621  0.00  0.00    -0.064 NA
BRANCH  14  16
ATOM     16  C   UNL     1      -3.360  13.214  32.769  0.00  0.00    +0.155 C 
ATOM     17  C   UNL     1      -2.589  13.483  34.079  0.00  0.00    +0.048 C 
ATOM     18  C   UNL     1      -4.699  13.971  32.828  0.00  0.00    +0.048 C 
BRANCH  16  19
ATOM     19  C   UNL     1      -2.512  13.757  31.615  0.00  0.00    +0.332 C 
ATOM     20  O   UNL     1      -2.963  14.074  30.520  0.00  0.00    -0.248 OA
BRANCH  19  21
ATOM     21  O   UNL     1      -1.188  13.876  31.875  0.00  0.00    -0.479 OA
ATOM     22  H   UNL     1      -0.947  14.240  32.749  0.00  0.00    +0.295 HD
ENDBRANCH  19  21
ENDBRANCH  16  19
ENDBRANCH  14  16
ENDBRANCH  10  12
ENDBRANCH   9  10
ENDBRANCH   5   9
ENDBRANCH   4   7
ENDBRANCH   1   4
BRANCH   1  23
ATOM     23  C   UNL     1      -3.211  11.038  27.436  0.00  0.00    +0.175 C 
BRANCH  23  24
ATOM     24  C   UNL     1      -4.114  11.505  26.285  0.00  0.00    +0.176 C 
ATOM     25  O   UNL     1      -3.330  12.379  25.428  0.00  0.00    -0.332 OA
ATOM     26  C   UNL     1      -4.002  12.840  24.209  0.00  0.00    +0.277 C 
ATOM     27  C   UNL     1      -5.349  13.520  24.558  0.00  0.00    +0.110 C 
ATOM     28  C   UNL     1      -6.204  12.641  25.495  0.00  0.00    +0.143 C 
ATOM     29  C   UNL     1      -5.407  12.215  26.728  0.00  0.00    +0.133 C 
BRANCH  29  30
ATOM     30  N   UNL     1      -6.203  11.308  27.569  0.00  0.00    -0.308 N 
ATOM     31  H   UNL     1      -6.533  10.448  27.154  0.00  0.00    +0.149 HD
ATOM     32  C   UNL     1      -6.519  11.547  28.845  0.00  0.00    +0.210 C 
ATOM     33  C   UNL     1      -6.024  12.879  29.440  0.00  0.00    +0.109 C 
ATOM     34  O   UNL     1      -7.175  10.762  29.530  0.00  0.00    -0.276 OA
ENDBRANCH  29  30
BRANCH  26  35
ATOM     35  C   UNL     1      -4.254  11.663  23.244  0.00  0.00    +0.414 C 
ATOM     36  O   UNL     1      -5.314  11.584  22.626  0.00  0.00    -0.240 OA
ATOM     37  O   UNL     1      -3.396  10.793  23.084  0.00  0.00    -0.240 OA
ENDBRANCH  26  35
BRANCH  26  38
ATOM     38  O   UNL     1      -3.147  13.822  23.569  0.00  0.00    -0.343 OA
ATOM     39  C   UNL     1      -3.807  14.664  22.590  0.00  0.00    +0.198 C 
ENDBRANCH  26  38
BRANCH  28  40
ATOM     40  O   UNL     1      -7.363  13.366  25.911  0.00  0.00    -0.390 OA
ATOM     41  H   UNL     1      -8.019  13.350  25.210  0.00  0.00    +0.210 HD
ENDBRANCH  28  40
ENDBRANCH  23  24
BRANCH  23  42
ATOM     42  O   UNL     1      -2.865  12.155  28.280  0.00  0.00    -0.387 OA
ATOM     43  H   UNL     1      -2.226  11.873  28.939  0.00  0.00    +0.210 HD
ENDBRANCH  23  42
ENDBRANCH   1  23
TORSDOF 16
