REMARK VINA RESULT:    -4.775      6.545     11.164
REMARK INTER + INTRA:         -11.593
REMARK INTER:                  -9.226
REMARK INTRA:                  -2.367
REMARK UNBOUND:                -3.049
REMARK  Name = lig_assembled_28.pdb
REMARK  17 active torsions:
REMARK  status: ('A' for Active; 'I' for Inactive)
REMARK    1  A    between atoms: _2  and  _9
REMARK    2  A    between atoms: _4  and  _22
REMARK    3  A    between atoms: _6  and  _7
REMARK    4  A    between atoms: _6  and  _22
REMARK    5  A    between atoms: _9  and  _10
REMARK    6  A    between atoms: _18  and  _38
REMARK    7  A    between atoms: _20  and  _26
REMARK    8  A    between atoms: _21  and  _25
REMARK    9  A    between atoms: _25  and  _26
REMARK   10  A    between atoms: _28  and  _29
REMARK   11  A    between atoms: _30  and  _31
REMARK   12  A    between atoms: _32  and  _34
REMARK   13  A    between atoms: _34  and  _35
REMARK   14  A    between atoms: _34  and  _36
REMARK   15  A    between atoms: _36  and  _37
REMARK   16  A    between atoms: _36  and  _38
REMARK   17  A    between atoms: _39  and  _41
REMARK                            x       y       z     vdW  Elec       q    Type
REMARK                         _______ _______ _______ _____ _____    ______ ____
ROOT
ATOM      1  C   UNL     1      -6.211  10.051  22.179  0.00  0.00    +0.163 C 
ENDROOT
BRANCH   1   2
ATOM      2  O   UNL     1      -7.285   9.693  23.064  0.00  0.00    -0.388 OA
ATOM      3  H   UNL     1      -7.284  10.279  23.824  0.00  0.00    +0.210 HD
ENDBRANCH   1   2
BRANCH   1   4
ATOM      4  C   UNL     1      -6.615   9.786  20.733  0.00  0.00    +0.141 C 
BRANCH   4   7
ATOM      5  C   UNL     1      -5.285  10.571  18.804  0.00  0.00    +0.401 C 
ATOM      6  O   UNL     1      -4.856   9.450  18.523  0.00  0.00    -0.226 OA
ATOM      7  N   UNL     1      -6.107  10.821  19.824  0.00  0.00    -0.279 N 
ATOM      8  H   UNL     1      -6.397  11.776  19.980  0.00  0.00    +0.152 HD
BRANCH   5   9
ATOM      9  O   UNL     1      -4.887  11.687  18.004  0.00  0.00    -0.444 OA
BRANCH   9  10
ATOM     10  C   UNL     1      -5.540  11.622  16.733  0.00  0.00    +0.292 C 
BRANCH  10  12
ATOM     11  N   UNL     1      -3.422  11.031  15.588  0.00  0.00    -0.131 NA
ATOM     12  C   UNL     1      -4.560  11.789  15.643  0.00  0.00    +0.120 A 
ATOM     13  C   UNL     1      -4.597  12.625  14.551  0.00  0.00    +0.137 A 
ATOM     14  N   UNL     1      -3.504  12.262  13.816  0.00  0.00    -0.247 N 
ATOM     15  N   UNL     1      -2.775  11.337  14.471  0.00  0.00    -0.065 NA
BRANCH  14  16
ATOM     16  C   UNL     1      -3.103  12.644  12.469  0.00  0.00    +0.180 C 
BRANCH  16  17
ATOM     17  C   UNL     1      -1.987  13.660  12.432  0.00  0.00    -0.022 A 
ATOM     18  C   UNL     1      -0.804  13.387  11.722  0.00  0.00    +0.055 A 
ATOM     19  C   UNL     1       0.137  14.389  11.621  0.00  0.00    +0.167 A 
ATOM     20  O   UNL     1       1.306  14.311  10.928  0.00  0.00    -0.453 OA
ATOM     21  C   UNL     1       1.793  15.661  11.073  0.00  0.00    +0.466 C 
ATOM     22  O   UNL     1       0.992  16.466  11.965  0.00  0.00    -0.453 OA
ATOM     23  C   UNL     1      -0.039  15.614  12.213  0.00  0.00    +0.166 A 
ATOM     24  C   UNL     1      -1.169  15.909  12.947  0.00  0.00    +0.050 A 
ATOM     25  C   UNL     1      -2.154  14.922  13.049  0.00  0.00    +0.009 A 
ENDBRANCH  16  17
ENDBRANCH  14  16
ENDBRANCH  10  12
ENDBRANCH   9  10
ENDBRANCH   5   9
ENDBRANCH   4   7
ENDBRANCH   1   4
BRANCH   1  26
ATOM     26  C   UNL     1      -4.936   9.256  22.511  0.00  0.00    +0.175 C 
BRANCH  26  27
ATOM     27  C   UNL     1      -4.164   9.867  23.689  0.00  0.00    +0.176 C 
ATOM     28  O   UNL     1      -4.836   9.472  24.917  0.00  0.00    -0.332 OA
ATOM     29  C   UNL     1      -4.175   9.878  26.161  0.00  0.00    +0.277 C 
ATOM     30  C   UNL     1      -3.929  11.407  26.167  0.00  0.00    +0.110 C 
ATOM     31  C   UNL     1      -3.245  11.880  24.867  0.00  0.00    +0.143 C 
ATOM     32  C   UNL     1      -4.014  11.399  23.636  0.00  0.00    +0.133 C 
BRANCH  32  33
ATOM     33  N   UNL     1      -3.306  11.781  22.405  0.00  0.00    -0.308 N 
ATOM     34  H   UNL     1      -2.448  11.295  22.183  0.00  0.00    +0.149 HD
ATOM     35  C   UNL     1      -3.722  12.728  21.560  0.00  0.00    +0.210 C 
ATOM     36  C   UNL     1      -5.019  13.468  21.939  0.00  0.00    +0.109 C 
ATOM     37  O   UNL     1      -3.116  13.017  20.528  0.00  0.00    -0.276 OA
ENDBRANCH  32  33
BRANCH  29  38
ATOM     38  C   UNL     1      -2.831   9.140  26.333  0.00  0.00    +0.414 C 
ATOM     39  O   UNL     1      -2.710   7.977  25.950  0.00  0.00    -0.240 OA
ATOM     40  O   UNL     1      -1.870   9.706  26.854  0.00  0.00    -0.240 OA
ENDBRANCH  29  38
BRANCH  29  41
ATOM     41  O   UNL     1      -5.057   9.552  27.265  0.00  0.00    -0.343 OA
ATOM     42  C   UNL     1      -4.966  10.443  28.405  0.00  0.00    +0.198 C 
ENDBRANCH  29  41
BRANCH  31  43
ATOM     43  O   UNL     1      -3.175  13.306  24.851  0.00  0.00    -0.390 OA
ATOM     44  H   UNL     1      -2.283  13.581  24.626  0.00  0.00    +0.210 HD
ENDBRANCH  31  43
ENDBRANCH  26  27
BRANCH  26  45
ATOM     45  O   UNL     1      -4.087   9.173  21.349  0.00  0.00    -0.387 OA
ATOM     46  H   UNL     1      -4.463   8.554  20.720  0.00  0.00    +0.210 HD
ENDBRANCH  26  45
ENDBRANCH   1  26
TORSDOF 15
