REMARK VINA RESULT:    -4.986      2.571      4.742
REMARK INTER + INTRA:         -13.122
REMARK INTER:                 -10.366
REMARK INTRA:                  -2.756
REMARK UNBOUND:                -3.181
REMARK  Name = lig_assembled_76.pdb
REMARK  21 active torsions:
REMARK  status: ('A' for Active; 'I' for Inactive)
REMARK    1  A    between atoms: _2  and  _9
REMARK    2  A    between atoms: _4  and  _23
REMARK    3  A    between atoms: _6  and  _7
REMARK    4  A    between atoms: _6  and  _23
REMARK    5  A    between atoms: _9  and  _10
REMARK    6  A    between atoms: _10  and  _11
REMARK    7  A    between atoms: _10  and  _18
REMARK    8  A    between atoms: _11  and  _12
REMARK    9  A    between atoms: _12  and  _13
REMARK   10  A    between atoms: _19  and  _39
REMARK   11  A    between atoms: _21  and  _27
REMARK   12  A    between atoms: _22  and  _26
REMARK   13  A    between atoms: _26  and  _27
REMARK   14  A    between atoms: _29  and  _30
REMARK   15  A    between atoms: _31  and  _32
REMARK   16  A    between atoms: _33  and  _35
REMARK   17  A    between atoms: _35  and  _36
REMARK   18  A    between atoms: _35  and  _37
REMARK   19  A    between atoms: _37  and  _38
REMARK   20  A    between atoms: _37  and  _39
REMARK   21  A    between atoms: _40  and  _42
REMARK                            x       y       z     vdW  Elec       q    Type
REMARK                         _______ _______ _______ _____ _____    ______ ____
ROOT
ATOM      1  C   UNL     1      -2.895  11.944  25.600  0.00  0.00    +0.141 C 
ENDROOT
BRANCH   1   4
ATOM      2  C   UNL     1      -2.281   9.788  26.640  0.00  0.00    +0.401 C 
ATOM      3  O   UNL     1      -1.097   9.855  26.301  0.00  0.00    -0.226 OA
ATOM      4  N   UNL     1      -3.193  10.717  26.350  0.00  0.00    -0.279 N 
ATOM      5  H   UNL     1      -4.142  10.568  26.663  0.00  0.00    +0.152 HD
BRANCH   2   6
ATOM      6  O   UNL     1      -2.727   8.653  27.386  0.00  0.00    -0.444 OA
BRANCH   6   7
ATOM      7  C   UNL     1      -4.000   8.936  27.972  0.00  0.00    +0.292 C 
BRANCH   7   9
ATOM      8  N   UNL     1      -3.180   8.531  30.276  0.00  0.00    -0.131 NA
ATOM      9  C   UNL     1      -3.842   9.332  29.381  0.00  0.00    +0.120 A 
ATOM     10  C   UNL     1      -4.289  10.461  30.031  0.00  0.00    +0.137 A 
ATOM     11  N   UNL     1      -3.864  10.289  31.311  0.00  0.00    -0.249 N 
ATOM     12  N   UNL     1      -3.207   9.127  31.462  0.00  0.00    -0.065 NA
BRANCH  11  13
ATOM     13  C   UNL     1      -4.159  11.116  32.459  0.00  0.00    +0.176 C 
BRANCH  13  14
ATOM     14  C   UNL     1      -2.959  11.952  32.918  0.00  0.00    +0.136 C 
BRANCH  14  15
ATOM     15  O   UNL     1      -1.809  11.646  32.117  0.00  0.00    -0.390 OA
ATOM     16  H   UNL     1      -1.961  11.958  31.208  0.00  0.00    +0.210 HD
ENDBRANCH  14  15
BRANCH  14  17
ATOM     17  C   UNL     1      -3.215  13.463  32.796  0.00  0.00    +0.038 C 
BRANCH  17  18
ATOM     18  C   UNL     1      -2.825  14.039  31.436  0.00  0.00    +0.038 C 
BRANCH  18  19
ATOM     19  C   UNL     1      -3.963  14.784  30.787  0.00  0.00    -0.047 A 
ATOM     20  C   UNL     1      -4.042  16.180  30.886  0.00  0.00    +0.003 A 
ATOM     21  C   UNL     1      -5.085  16.874  30.271  0.00  0.00    +0.000 A 
ATOM     22  C   UNL     1      -6.059  16.180  29.558  0.00  0.00    +0.000 A 
ATOM     23  C   UNL     1      -5.994  14.790  29.463  0.00  0.00    +0.000 A 
ATOM     24  C   UNL     1      -4.953  14.094  30.079  0.00  0.00    +0.003 A 
ENDBRANCH  18  19
ENDBRANCH  17  18
ENDBRANCH  14  17
ENDBRANCH  13  14
ENDBRANCH  11  13
ENDBRANCH   7   9
ENDBRANCH   6   7
ENDBRANCH   2   6
ENDBRANCH   1   4
BRANCH   1  25
ATOM     25  C   UNL     1      -3.046  11.742  24.096  0.00  0.00    +0.163 C 
BRANCH  25  26
ATOM     26  O   UNL     1      -3.806  10.551  23.834  0.00  0.00    -0.388 OA
ATOM     27  H   UNL     1      -3.267   9.779  24.024  0.00  0.00    +0.210 HD
ENDBRANCH  25  26
BRANCH  25  28
ATOM     28  C   UNL     1      -3.726  12.976  23.478  0.00  0.00    +0.175 C 
BRANCH  28  29
ATOM     29  C   UNL     1      -4.859  12.590  22.516  0.00  0.00    +0.176 C 
ATOM     30  O   UNL     1      -4.274  11.841  21.414  0.00  0.00    -0.332 OA
ATOM     31  C   UNL     1      -5.227  11.295  20.443  0.00  0.00    +0.277 C 
ATOM     32  C   UNL     1      -6.137  12.418  19.888  0.00  0.00    +0.110 C 
ATOM     33  C   UNL     1      -6.757  13.262  21.022  0.00  0.00    +0.143 C 
ATOM     34  C   UNL     1      -5.677  13.777  21.975  0.00  0.00    +0.133 C 
BRANCH  34  35
ATOM     35  N   UNL     1      -6.287  14.506  23.098  0.00  0.00    -0.308 N 
ATOM     36  H   UNL     1      -6.938  14.005  23.687  0.00  0.00    +0.149 HD
ATOM     37  C   UNL     1      -6.037  15.785  23.391  0.00  0.00    +0.210 C 
ATOM     38  C   UNL     1      -5.060  16.527  22.459  0.00  0.00    +0.109 C 
ATOM     39  O   UNL     1      -6.551  16.365  24.347  0.00  0.00    -0.276 OA
ENDBRANCH  34  35
BRANCH  31  40
ATOM     40  C   UNL     1      -6.098  10.198  21.088  0.00  0.00    +0.414 C 
ATOM     41  O   UNL     1      -7.217   9.950  20.640  0.00  0.00    -0.240 OA
ATOM     42  O   UNL     1      -5.682   9.560  22.057  0.00  0.00    -0.240 OA
ENDBRANCH  31  40
BRANCH  33  43
ATOM     43  O   UNL     1      -7.462  14.372  20.466  0.00  0.00    -0.390 OA
ATOM     44  H   UNL     1      -7.515  15.077  21.116  0.00  0.00    +0.210 HD
ENDBRANCH  33  43
BRANCH  31  45
ATOM     45  O   UNL     1      -4.470  10.733  19.340  0.00  0.00    -0.343 OA
ATOM     46  C   UNL     1      -4.763  11.307  18.041  0.00  0.00    +0.198 C 
ENDBRANCH  31  45
ENDBRANCH  28  29
BRANCH  28  47
ATOM     47  O   UNL     1      -2.751  13.791  22.796  0.00  0.00    -0.387 OA
ATOM     48  H   UNL     1      -1.961  13.865  23.337  0.00  0.00    +0.210 HD
ENDBRANCH  28  47
ENDBRANCH  25  28
ENDBRANCH   1  25
TORSDOF 19
