REMARK VINA RESULT:    -5.231      0.000      0.000
REMARK INTER + INTRA:         -12.115
REMARK INTER:                  -8.579
REMARK INTRA:                  -3.536
REMARK UNBOUND:                -2.756
REMARK  Name = lig_assembled_41.pdb
REMARK  18 active torsions:
REMARK  status: ('A' for Active; 'I' for Inactive)
REMARK    1  A    between atoms: _2  and  _9
REMARK    2  A    between atoms: _4  and  _21
REMARK    3  A    between atoms: _6  and  _7
REMARK    4  A    between atoms: _6  and  _21
REMARK    5  A    between atoms: _10  and  _11
REMARK    6  A    between atoms: _11  and  _12
REMARK    7  A    between atoms: _17  and  _37
REMARK    8  A    between atoms: _19  and  _25
REMARK    9  A    between atoms: _20  and  _24
REMARK   10  A    between atoms: _24  and  _25
REMARK   11  A    between atoms: _27  and  _28
REMARK   12  A    between atoms: _29  and  _30
REMARK   13  A    between atoms: _31  and  _33
REMARK   14  A    between atoms: _33  and  _34
REMARK   15  A    between atoms: _33  and  _35
REMARK   16  A    between atoms: _35  and  _36
REMARK   17  A    between atoms: _35  and  _37
REMARK   18  A    between atoms: _38  and  _40
REMARK                            x       y       z     vdW  Elec       q    Type
REMARK                         _______ _______ _______ _____ _____    ______ ____
ROOT
ATOM      1  C   UNL     1      -6.774   8.724  24.089  0.00  0.00    +0.163 C 
ENDROOT
BRANCH   1   2
ATOM      2  O   UNL     1      -6.081   8.892  25.337  0.00  0.00    -0.388 OA
ATOM      3  H   UNL     1      -5.275   8.370  25.330  0.00  0.00    +0.210 HD
ENDBRANCH   1   2
BRANCH   1   4
ATOM      4  C   UNL     1      -6.370   7.402  23.443  0.00  0.00    +0.141 C 
BRANCH   4   7
ATOM      5  C   UNL     1      -3.928   7.031  23.384  0.00  0.00    +0.401 C 
ATOM      6  O   UNL     1      -3.774   7.598  22.299  0.00  0.00    -0.226 OA
ATOM      7  N   UNL     1      -5.108   6.889  23.989  0.00  0.00    -0.279 N 
ATOM      8  H   UNL     1      -5.135   6.400  24.873  0.00  0.00    +0.152 HD
BRANCH   5   9
ATOM      9  O   UNL     1      -2.788   6.482  24.049  0.00  0.00    -0.444 OA
BRANCH   9  10
ATOM     10  C   UNL     1      -3.216   5.716  25.178  0.00  0.00    +0.292 C 
BRANCH  10  12
ATOM     11  N   UNL     1      -1.754   7.089  26.613  0.00  0.00    -0.131 NA
ATOM     12  C   UNL     1      -2.940   6.446  26.429  0.00  0.00    +0.121 A 
ATOM     13  C   UNL     1      -3.731   6.634  27.541  0.00  0.00    +0.143 A 
ATOM     14  N   UNL     1      -2.937   7.316  28.435  0.00  0.00    -0.219 N 
ATOM     15  N   UNL     1      -1.778   7.660  27.808  0.00  0.00    -0.060 NA
BRANCH  14  16
ATOM     16  C   UNL     1      -3.201   7.762  29.761  0.00  0.00    +0.077 A 
ATOM     17  C   UNL     1      -3.692   9.042  30.097  0.00  0.00    +0.043 A 
ATOM     18  C   UNL     1      -3.860   9.369  31.459  0.00  0.00    +0.013 A 
ATOM     19  C   UNL     1      -3.544   8.457  32.469  0.00  0.00    +0.001 A 
ATOM     20  C   UNL     1      -3.085   7.191  32.138  0.00  0.00    +0.002 A 
ATOM     21  C   UNL     1      -2.926   6.842  30.799  0.00  0.00    +0.028 A 
BRANCH  17  22
ATOM     22  C   UNL     1      -4.247  10.008  29.101  0.00  0.00    +0.162 C 
ATOM     23  O   UNL     1      -5.165   9.654  28.365  0.00  0.00    -0.292 OA
ATOM     24  C   UNL     1      -3.686  11.406  29.002  0.00  0.00    +0.091 C 
ENDBRANCH  17  22
ENDBRANCH  14  16
ENDBRANCH  10  12
ENDBRANCH   9  10
ENDBRANCH   5   9
ENDBRANCH   4   7
ENDBRANCH   1   4
BRANCH   1  25
ATOM     25  C   UNL     1      -6.463   9.883  23.127  0.00  0.00    +0.175 C 
BRANCH  25  26
ATOM     26  C   UNL     1      -5.069  10.479  23.372  0.00  0.00    +0.176 C 
ATOM     27  O   UNL     1      -5.165  11.393  24.499  0.00  0.00    -0.332 OA
ATOM     28  C   UNL     1      -3.900  11.982  24.948  0.00  0.00    +0.277 C 
ATOM     29  C   UNL     1      -3.180  12.680  23.768  0.00  0.00    +0.110 C 
ATOM     30  C   UNL     1      -3.081  11.758  22.535  0.00  0.00    +0.143 C 
ATOM     31  C   UNL     1      -4.454  11.199  22.157  0.00  0.00    +0.133 C 
BRANCH  31  32
ATOM     32  N   UNL     1      -4.334  10.254  21.035  0.00  0.00    -0.308 N 
ATOM     33  H   UNL     1      -3.868   9.374  21.207  0.00  0.00    +0.149 HD
ATOM     34  C   UNL     1      -4.801  10.484  19.805  0.00  0.00    +0.210 C 
ATOM     35  C   UNL     1      -5.482  11.845  19.569  0.00  0.00    +0.109 C 
ATOM     36  O   UNL     1      -4.699   9.668  18.888  0.00  0.00    -0.276 OA
ENDBRANCH  31  32
BRANCH  28  37
ATOM     37  C   UNL     1      -2.977  10.901  25.549  0.00  0.00    +0.414 C 
ATOM     38  O   UNL     1      -3.375   9.744  25.672  0.00  0.00    -0.240 OA
ATOM     39  O   UNL     1      -1.835  11.187  25.910  0.00  0.00    -0.240 OA
ENDBRANCH  28  37
BRANCH  30  40
ATOM     40  O   UNL     1      -2.550  12.488  21.429  0.00  0.00    -0.390 OA
ATOM     41  H   UNL     1      -1.732  12.916  21.691  0.00  0.00    +0.210 HD
ENDBRANCH  30  40
BRANCH  28  42
ATOM     42  O   UNL     1      -4.202  12.981  25.955  0.00  0.00    -0.343 OA
ATOM     43  C   UNL     1      -5.608  13.112  26.285  0.00  0.00    +0.198 C 
ENDBRANCH  28  42
ENDBRANCH  25  26
BRANCH  25  44
ATOM     44  O   UNL     1      -7.469  10.908  23.243  0.00  0.00    -0.387 OA
ATOM     45  H   UNL     1      -8.110  10.654  23.911  0.00  0.00    +0.210 HD
ENDBRANCH  25  44
ENDBRANCH   1  25
TORSDOF 15
