REMARK VINA RESULT:    -4.827      8.530     11.862
REMARK INTER + INTRA:         -10.406
REMARK INTER:                  -7.703
REMARK INTRA:                  -2.703
REMARK UNBOUND:                -2.334
REMARK  Name = lig_assembled_65.pdb
REMARK  16 active torsions:
REMARK  status: ('A' for Active; 'I' for Inactive)
REMARK    1  A    between atoms: _8  and  _20
REMARK    2  A    between atoms: _9  and  _15
REMARK    3  A    between atoms: _10  and  _11
REMARK    4  A    between atoms: _10  and  _20
REMARK    5  A    between atoms: _16  and  _36
REMARK    6  A    between atoms: _18  and  _24
REMARK    7  A    between atoms: _19  and  _23
REMARK    8  A    between atoms: _23  and  _24
REMARK    9  A    between atoms: _26  and  _27
REMARK   10  A    between atoms: _28  and  _29
REMARK   11  A    between atoms: _30  and  _32
REMARK   12  A    between atoms: _32  and  _33
REMARK   13  A    between atoms: _32  and  _34
REMARK   14  A    between atoms: _34  and  _35
REMARK   15  A    between atoms: _34  and  _36
REMARK   16  A    between atoms: _37  and  _39
REMARK                            x       y       z     vdW  Elec       q    Type
REMARK                         _______ _______ _______ _____ _____    ______ ____
ROOT
ATOM      1  C   UNL     1      -3.966   8.553  24.264  0.00  0.00    +0.163 C 
ENDROOT
BRANCH   1   2
ATOM      2  O   UNL     1      -5.197   8.523  23.525  0.00  0.00    -0.388 OA
ATOM      3  H   UNL     1      -5.731   9.286  23.761  0.00  0.00    +0.210 HD
ENDBRANCH   1   2
BRANCH   1   4
ATOM      4  C   UNL     1      -3.834   7.290  25.109  0.00  0.00    +0.141 C 
BRANCH   4   7
ATOM      5  C   UNL     1      -2.047   7.079  26.803  0.00  0.00    +0.401 C 
ATOM      6  O   UNL     1      -1.348   6.336  26.110  0.00  0.00    -0.226 OA
ATOM      7  N   UNL     1      -3.227   7.567  26.417  0.00  0.00    -0.279 N 
ATOM      8  H   UNL     1      -3.731   8.160  27.060  0.00  0.00    +0.152 HD
BRANCH   5   9
ATOM      9  O   UNL     1      -1.588   7.449  28.106  0.00  0.00    -0.444 OA
BRANCH   9  10
ATOM     10  C   UNL     1      -2.378   6.788  29.097  0.00  0.00    +0.292 C 
BRANCH  10  12
ATOM     11  N   UNL     1      -4.013   7.459  30.832  0.00  0.00    -0.131 NA
ATOM     12  C   UNL     1      -2.932   7.766  30.052  0.00  0.00    +0.121 A 
ATOM     13  C   UNL     1      -2.528   9.050  30.331  0.00  0.00    +0.149 A 
ATOM     14  N   UNL     1      -3.408   9.499  31.293  0.00  0.00    -0.155 N 
ATOM     15  C   UNL     1      -3.428  10.785  31.908  0.00  0.00    +0.416 C 
ATOM     16  N   UNL     1      -4.363  11.039  32.831  0.00  0.00    +0.041 NA
ATOM     17  C   UNL     1      -4.328  12.265  33.347  0.00  0.00    +0.339 C 
ATOM     18  C   UNL     1      -5.358  12.614  34.376  0.00  0.00    +0.149 C 
ATOM     19  N   UNL     1      -3.449  13.206  33.002  0.00  0.00    +0.007 NA
ATOM     20  C   UNL     1      -2.575  12.857  32.071  0.00  0.00    +0.386 C 
ATOM     21  N   UNL     1      -1.654  13.805  31.677  0.00  0.00    -0.296 N 
ATOM     22  H   UNL     1      -1.539  14.509  32.392  0.00  0.00    +0.148 HD
ATOM     23  H   UNL     1      -0.820  13.374  31.306  0.00  0.00    +0.148 HD
ATOM     24  N   UNL     1      -2.500  11.666  31.505  0.00  0.00    -0.290 NA
ATOM     25  N   UNL     1      -4.295   8.515  31.586  0.00  0.00    -0.055 NA
ENDBRANCH  10  12
ENDBRANCH   9  10
ENDBRANCH   5   9
ENDBRANCH   4   7
ENDBRANCH   1   4
BRANCH   1  26
ATOM     26  C   UNL     1      -3.901   9.790  25.176  0.00  0.00    +0.175 C 
BRANCH  26  27
ATOM     27  C   UNL     1      -4.820  10.918  24.686  0.00  0.00    +0.176 C 
ATOM     28  O   UNL     1      -4.257  11.449  23.454  0.00  0.00    -0.332 OA
ATOM     29  C   UNL     1      -5.062  12.472  22.779  0.00  0.00    +0.277 C 
ATOM     30  C   UNL     1      -5.385  13.634  23.750  0.00  0.00    +0.110 C 
ATOM     31  C   UNL     1      -5.957  13.116  25.087  0.00  0.00    +0.143 C 
ATOM     32  C   UNL     1      -5.043  12.055  25.700  0.00  0.00    +0.133 C 
BRANCH  32  33
ATOM     33  N   UNL     1      -5.640  11.507  26.928  0.00  0.00    -0.308 N 
ATOM     34  H   UNL     1      -6.571  11.120  26.868  0.00  0.00    +0.149 HD
ATOM     35  C   UNL     1      -5.032  11.489  28.118  0.00  0.00    +0.210 C 
ATOM     36  C   UNL     1      -3.624  12.110  28.183  0.00  0.00    +0.109 C 
ATOM     37  O   UNL     1      -5.552  11.010  29.126  0.00  0.00    -0.276 OA
ENDBRANCH  32  33
BRANCH  29  38
ATOM     38  C   UNL     1      -6.376  11.868  22.242  0.00  0.00    +0.414 C 
ATOM     39  O   UNL     1      -7.418  12.520  22.279  0.00  0.00    -0.240 OA
ATOM     40  O   UNL     1      -6.393  10.730  21.772  0.00  0.00    -0.240 OA
ENDBRANCH  29  38
BRANCH  29  41
ATOM     41  O   UNL     1      -4.281  13.002  21.677  0.00  0.00    -0.343 OA
ATOM     42  C   UNL     1      -3.143  12.192  21.288  0.00  0.00    +0.198 C 
ENDBRANCH  29  41
BRANCH  31  43
ATOM     43  O   UNL     1      -6.098  14.202  26.004  0.00  0.00    -0.390 OA
ATOM     44  H   UNL     1      -6.100  15.032  25.520  0.00  0.00    +0.210 HD
ENDBRANCH  31  43
ENDBRANCH  26  27
BRANCH  26  45
ATOM     45  O   UNL     1      -2.543  10.263  25.276  0.00  0.00    -0.387 OA
ATOM     46  H   UNL     1      -2.154  10.308  24.399  0.00  0.00    +0.210 HD
ENDBRANCH  26  45
ENDBRANCH   1  26
TORSDOF 13
