REMARK VINA RESULT:    -5.280      7.905     12.420
REMARK INTER + INTRA:         -11.644
REMARK INTER:                  -9.139
REMARK INTRA:                  -2.505
REMARK UNBOUND:                -2.505
REMARK  Name = lig_assembled_3.pdb
REMARK  16 active torsions:
REMARK  status: ('A' for Active; 'I' for Inactive)
REMARK    1  A    between atoms: _2  and  _9
REMARK    2  A    between atoms: _4  and  _18
REMARK    3  A    between atoms: _6  and  _7
REMARK    4  A    between atoms: _6  and  _18
REMARK    5  A    between atoms: _14  and  _34
REMARK    6  A    between atoms: _16  and  _22
REMARK    7  A    between atoms: _17  and  _21
REMARK    8  A    between atoms: _21  and  _22
REMARK    9  A    between atoms: _24  and  _25
REMARK   10  A    between atoms: _26  and  _27
REMARK   11  A    between atoms: _28  and  _30
REMARK   12  A    between atoms: _30  and  _31
REMARK   13  A    between atoms: _30  and  _32
REMARK   14  A    between atoms: _32  and  _33
REMARK   15  A    between atoms: _32  and  _34
REMARK   16  A    between atoms: _35  and  _37
REMARK                            x       y       z     vdW  Elec       q    Type
REMARK                         _______ _______ _______ _____ _____    ______ ____
ROOT
ATOM      1  C   UNL     1      -2.854   9.622  13.839  0.00  0.00    +0.163 C 
ENDROOT
BRANCH   1   2
ATOM      2  O   UNL     1      -1.535   9.351  13.338  0.00  0.00    -0.388 OA
ATOM      3  H   UNL     1      -1.597   8.798  12.554  0.00  0.00    +0.210 HD
ENDBRANCH   1   2
BRANCH   1   4
ATOM      4  C   UNL     1      -3.477   8.343  14.389  0.00  0.00    +0.141 C 
BRANCH   4   7
ATOM      5  C   UNL     1      -4.795   8.730  16.442  0.00  0.00    +0.401 C 
ATOM      6  O   UNL     1      -5.826   9.033  15.836  0.00  0.00    -0.226 OA
ATOM      7  N   UNL     1      -3.649   8.400  15.845  0.00  0.00    -0.279 N 
ATOM      8  H   UNL     1      -2.855   8.177  16.429  0.00  0.00    +0.152 HD
BRANCH   5   9
ATOM      9  O   UNL     1      -4.805   8.731  17.872  0.00  0.00    -0.444 OA
BRANCH   9  10
ATOM     10  C   UNL     1      -5.950   9.448  18.342  0.00  0.00    +0.292 C 
BRANCH  10  12
ATOM     11  N   UNL     1      -6.027  11.719  19.320  0.00  0.00    -0.131 NA
ATOM     12  C   UNL     1      -5.551  10.441  19.358  0.00  0.00    +0.121 A 
ATOM     13  C   UNL     1      -4.717  10.303  20.444  0.00  0.00    +0.143 A 
ATOM     14  N   UNL     1      -4.733  11.531  21.065  0.00  0.00    -0.220 N 
ATOM     15  N   UNL     1      -5.523  12.377  20.355  0.00  0.00    -0.060 NA
BRANCH  14  16
ATOM     16  C   UNL     1      -4.083  11.932  22.261  0.00  0.00    +0.067 A 
ATOM     17  C   UNL     1      -3.519  10.983  23.125  0.00  0.00    +0.028 A 
ATOM     18  C   UNL     1      -2.910  11.395  24.313  0.00  0.00    +0.002 A 
ATOM     19  C   UNL     1      -2.857  12.748  24.642  0.00  0.00    +0.000 A 
ATOM     20  C   UNL     1      -3.408  13.697  23.783  0.00  0.00    +0.002 A 
ATOM     21  C   UNL     1      -4.019  13.293  22.593  0.00  0.00    +0.028 A 
ENDBRANCH  14  16
ENDBRANCH  10  12
ENDBRANCH   9  10
ENDBRANCH   5   9
ENDBRANCH   4   7
ENDBRANCH   1   4
BRANCH   1  22
ATOM     22  C   UNL     1      -3.755  10.199  12.734  0.00  0.00    +0.175 C 
BRANCH  22  23
ATOM     23  C   UNL     1      -3.392  11.651  12.391  0.00  0.00    +0.176 C 
ATOM     24  O   UNL     1      -2.079  11.648  11.766  0.00  0.00    -0.332 OA
ATOM     25  C   UNL     1      -1.609  12.946  11.272  0.00  0.00    +0.277 C 
ATOM     26  C   UNL     1      -1.648  14.002  12.403  0.00  0.00    +0.110 C 
ATOM     27  C   UNL     1      -3.015  14.020  13.119  0.00  0.00    +0.143 C 
ATOM     28  C   UNL     1      -3.407  12.619  13.589  0.00  0.00    +0.133 C 
BRANCH  28  29
ATOM     29  N   UNL     1      -4.749  12.635  14.191  0.00  0.00    -0.308 N 
ATOM     30  H   UNL     1      -5.542  12.745  13.574  0.00  0.00    +0.149 HD
ATOM     31  C   UNL     1      -4.989  12.512  15.499  0.00  0.00    +0.210 C 
ATOM     32  C   UNL     1      -3.759  12.371  16.415  0.00  0.00    +0.109 C 
ATOM     33  O   UNL     1      -6.125  12.514  15.974  0.00  0.00    -0.276 OA
ENDBRANCH  28  29
BRANCH  25  34
ATOM     34  C   UNL     1      -2.474  13.426  10.088  0.00  0.00    +0.414 C 
ATOM     35  O   UNL     1      -2.598  14.629   9.858  0.00  0.00    -0.240 OA
ATOM     36  O   UNL     1      -3.049  12.612   9.364  0.00  0.00    -0.240 OA
ENDBRANCH  25  34
BRANCH  27  37
ATOM     37  O   UNL     1      -2.957  14.896  14.246  0.00  0.00    -0.390 OA
ATOM     38  H   UNL     1      -2.120  15.366  14.244  0.00  0.00    +0.210 HD
ENDBRANCH  27  37
BRANCH  25  39
ATOM     39  O   UNL     1      -0.233  12.789  10.839  0.00  0.00    -0.343 OA
ATOM     40  C   UNL     1       0.598  13.967  11.002  0.00  0.00    +0.198 C 
ENDBRANCH  25  39
ENDBRANCH  22  23
BRANCH  22  41
ATOM     41  O   UNL     1      -5.140  10.113  13.126  0.00  0.00    -0.387 OA
ATOM     42  H   UNL     1      -5.195   9.956  14.072  0.00  0.00    +0.210 HD
ENDBRANCH  22  41
ENDBRANCH   1  22
TORSDOF 14
