REMARK VINA RESULT:    -4.131      1.988      7.295
REMARK INTER + INTRA:         -10.629
REMARK INTER:                  -7.125
REMARK INTRA:                  -3.504
REMARK UNBOUND:                -2.754
REMARK  Name = lig_assembled_19.pdb
REMARK  20 active torsions:
REMARK  status: ('A' for Active; 'I' for Inactive)
REMARK    1  A    between atoms: _2  and  _9
REMARK    2  A    between atoms: _4  and  _18
REMARK    3  A    between atoms: _5  and  _11
REMARK    4  A    between atoms: _6  and  _7
REMARK    5  A    between atoms: _6  and  _18
REMARK    6  A    between atoms: _9  and  _10
REMARK    7  A    between atoms: _10  and  _13
REMARK    8  A    between atoms: _11  and  _13
REMARK    9  A    between atoms: _14  and  _34
REMARK   10  A    between atoms: _16  and  _22
REMARK   11  A    between atoms: _17  and  _21
REMARK   12  A    between atoms: _21  and  _22
REMARK   13  A    between atoms: _24  and  _25
REMARK   14  A    between atoms: _26  and  _27
REMARK   15  A    between atoms: _28  and  _30
REMARK   16  A    between atoms: _30  and  _31
REMARK   17  A    between atoms: _30  and  _32
REMARK   18  A    between atoms: _32  and  _33
REMARK   19  A    between atoms: _32  and  _34
REMARK   20  A    between atoms: _35  and  _37
REMARK                            x       y       z     vdW  Elec       q    Type
REMARK                         _______ _______ _______ _____ _____    ______ ____
ROOT
ATOM      1  C   UNL     1      -4.357  10.808  25.368  0.00  0.00    +0.163 C 
ENDROOT
BRANCH   1   2
ATOM      2  O   UNL     1      -5.047  10.154  24.290  0.00  0.00    -0.388 OA
ATOM      3  H   UNL     1      -4.665   9.285  24.146  0.00  0.00    +0.210 HD
ENDBRANCH   1   2
BRANCH   1   4
ATOM      4  C   UNL     1      -2.935  10.247  25.531  0.00  0.00    +0.175 C 
BRANCH   4   5
ATOM      5  C   UNL     1      -2.916   8.950  26.354  0.00  0.00    +0.176 C 
ATOM      6  O   UNL     1      -3.365   7.867  25.494  0.00  0.00    -0.332 OA
ATOM      7  C   UNL     1      -3.312   6.526  26.083  0.00  0.00    +0.277 C 
ATOM      8  C   UNL     1      -4.093   6.490  27.419  0.00  0.00    +0.110 C 
ATOM      9  C   UNL     1      -3.673   7.643  28.355  0.00  0.00    +0.143 C 
ATOM     10  C   UNL     1      -3.763   8.991  27.640  0.00  0.00    +0.133 C 
BRANCH  10  11
ATOM     11  N   UNL     1      -3.277  10.071  28.514  0.00  0.00    -0.308 N 
ATOM     12  H   UNL     1      -2.290  10.095  28.731  0.00  0.00    +0.149 HD
ATOM     13  C   UNL     1      -4.055  11.022  29.039  0.00  0.00    +0.210 C 
ATOM     14  C   UNL     1      -5.557  10.943  28.711  0.00  0.00    +0.109 C 
ATOM     15  O   UNL     1      -3.618  11.923  29.756  0.00  0.00    -0.276 OA
ENDBRANCH  10  11
BRANCH   7  16
ATOM     16  C   UNL     1      -1.852   6.093  26.327  0.00  0.00    +0.414 C 
ATOM     17  O   UNL     1      -1.507   5.669  27.430  0.00  0.00    -0.240 OA
ATOM     18  O   UNL     1      -1.018   6.169  25.424  0.00  0.00    -0.240 OA
ENDBRANCH   7  16
BRANCH   9  19
ATOM     19  O   UNL     1      -4.519   7.662  29.505  0.00  0.00    -0.390 OA
ATOM     20  H   UNL     1      -4.572   8.557  29.849  0.00  0.00    +0.210 HD
ENDBRANCH   9  19
BRANCH   7  21
ATOM     21  O   UNL     1      -3.946   5.605  25.158  0.00  0.00    -0.343 OA
ATOM     22  C   UNL     1      -4.494   6.217  23.963  0.00  0.00    +0.198 C 
ENDBRANCH   7  21
ENDBRANCH   4   5
BRANCH   4  23
ATOM     23  O   UNL     1      -2.078  11.234  26.140  0.00  0.00    -0.387 OA
ATOM     24  H   UNL     1      -1.160  10.993  25.996  0.00  0.00    +0.210 HD
ENDBRANCH   4  23
ENDBRANCH   1   4
BRANCH   1  25
ATOM     25  C   UNL     1      -4.286  12.309  25.106  0.00  0.00    +0.141 C 
BRANCH  25  28
ATOM     26  C   UNL     1      -4.349  13.197  22.801  0.00  0.00    +0.401 C 
ATOM     27  O   UNL     1      -5.532  13.541  22.866  0.00  0.00    -0.226 OA
ATOM     28  N   UNL     1      -3.688  12.609  23.798  0.00  0.00    -0.279 N 
ATOM     29  H   UNL     1      -2.723  12.354  23.646  0.00  0.00    +0.152 HD
BRANCH  26  30
ATOM     30  O   UNL     1      -3.623  13.430  21.591  0.00  0.00    -0.444 OA
BRANCH  30  31
ATOM     31  C   UNL     1      -2.830  12.281  21.281  0.00  0.00    +0.292 C 
BRANCH  31  33
ATOM     32  N   UNL     1      -3.576   9.984  21.838  0.00  0.00    -0.131 NA
ATOM     33  C   UNL     1      -3.691  11.106  21.057  0.00  0.00    +0.120 A 
ATOM     34  C   UNL     1      -4.682  10.903  20.124  0.00  0.00    +0.137 A 
ATOM     35  N   UNL     1      -5.120   9.639  20.382  0.00  0.00    -0.248 N 
ATOM     36  N   UNL     1      -4.460   9.091  21.415  0.00  0.00    -0.065 NA
BRANCH  35  37
ATOM     37  C   UNL     1      -6.164   8.905  19.701  0.00  0.00    +0.186 C 
BRANCH  37  38
ATOM     38  C   UNL     1      -7.452   8.863  20.516  0.00  0.00    +0.255 C 
BRANCH  38  39
ATOM     39  O   UNL     1      -8.113  10.144  20.557  0.00  0.00    -0.463 OA
BRANCH  39  40
ATOM     40  C   UNL     1      -8.082  10.792  21.751  0.00  0.00    +0.304 C 
ATOM     41  O   UNL     1      -7.523  10.378  22.757  0.00  0.00    -0.251 OA
ATOM     42  C   UNL     1      -8.800  12.104  21.666  0.00  0.00    +0.136 C 
ENDBRANCH  39  40
ENDBRANCH  38  39
ENDBRANCH  37  38
ENDBRANCH  35  37
ENDBRANCH  31  33
ENDBRANCH  30  31
ENDBRANCH  26  30
ENDBRANCH  25  28
ENDBRANCH   1  25
TORSDOF 17
