REMARK VINA RESULT:    -5.065      6.247     11.452
REMARK INTER + INTRA:         -12.827
REMARK INTER:                 -11.183
REMARK INTRA:                  -1.645
REMARK UNBOUND:                -3.320
REMARK  Name = lig_assembled_16.pdb
REMARK  19 active torsions:
REMARK  status: ('A' for Active; 'I' for Inactive)
REMARK    1  A    between atoms: _2  and  _9
REMARK    2  A    between atoms: _4  and  _22
REMARK    3  A    between atoms: _6  and  _7
REMARK    4  A    between atoms: _6  and  _22
REMARK    5  A    between atoms: _9  and  _10
REMARK    6  A    between atoms: _13  and  _14
REMARK    7  A    between atoms: _14  and  _16
REMARK    8  A    between atoms: _18  and  _38
REMARK    9  A    between atoms: _20  and  _26
REMARK   10  A    between atoms: _21  and  _25
REMARK   11  A    between atoms: _25  and  _26
REMARK   12  A    between atoms: _28  and  _29
REMARK   13  A    between atoms: _30  and  _31
REMARK   14  A    between atoms: _32  and  _34
REMARK   15  A    between atoms: _34  and  _35
REMARK   16  A    between atoms: _34  and  _36
REMARK   17  A    between atoms: _36  and  _37
REMARK   18  A    between atoms: _36  and  _38
REMARK   19  A    between atoms: _39  and  _41
REMARK                            x       y       z     vdW  Elec       q    Type
REMARK                         _______ _______ _______ _____ _____    ______ ____
ROOT
ATOM      1  C   UNL     1      -3.314  11.513  22.051  0.00  0.00    +0.163 C 
ENDROOT
BRANCH   1   2
ATOM      2  O   UNL     1      -3.010  12.446  23.101  0.00  0.00    -0.388 OA
ATOM      3  H   UNL     1      -2.112  12.769  22.993  0.00  0.00    +0.210 HD
ENDBRANCH   1   2
BRANCH   1   4
ATOM      4  C   UNL     1      -3.923  10.221  22.623  0.00  0.00    +0.175 C 
BRANCH   4   5
ATOM      5  C   UNL     1      -4.114  10.296  24.145  0.00  0.00    +0.176 C 
ATOM      6  O   UNL     1      -2.955   9.682  24.772  0.00  0.00    -0.332 OA
ATOM      7  C   UNL     1      -2.913   9.757  26.236  0.00  0.00    +0.277 C 
ATOM      8  C   UNL     1      -4.210   9.171  26.845  0.00  0.00    +0.110 C 
ATOM      9  C   UNL     1      -5.470   9.771  26.187  0.00  0.00    +0.143 C 
ATOM     10  C   UNL     1      -5.408   9.642  24.665  0.00  0.00    +0.133 C 
BRANCH  10  11
ATOM     11  N   UNL     1      -6.572  10.295  24.045  0.00  0.00    -0.308 N 
ATOM     12  H   UNL     1      -6.699  11.284  24.204  0.00  0.00    +0.149 HD
ATOM     13  C   UNL     1      -7.472   9.665  23.285  0.00  0.00    +0.210 C 
ATOM     14  C   UNL     1      -7.265   8.152  23.082  0.00  0.00    +0.109 C 
ATOM     15  O   UNL     1      -8.429  10.240  22.766  0.00  0.00    -0.276 OA
ENDBRANCH  10  11
BRANCH   7  16
ATOM     16  C   UNL     1      -2.736  11.216  26.704  0.00  0.00    +0.414 C 
ATOM     17  O   UNL     1      -1.996  11.980  26.087  0.00  0.00    -0.240 OA
ATOM     18  O   UNL     1      -3.334  11.629  27.699  0.00  0.00    -0.240 OA
ENDBRANCH   7  16
BRANCH   7  19
ATOM     19  O   UNL     1      -1.791   8.958  26.694  0.00  0.00    -0.343 OA
ATOM     20  C   UNL     1      -1.799   8.646  28.110  0.00  0.00    +0.198 C 
ENDBRANCH   7  19
BRANCH   9  21
ATOM     21  O   UNL     1      -6.633   9.097  26.669  0.00  0.00    -0.390 OA
ATOM     22  H   UNL     1      -6.762   8.285  26.173  0.00  0.00    +0.210 HD
ENDBRANCH   9  21
ENDBRANCH   4   5
BRANCH   4  23
ATOM     23  O   UNL     1      -3.097   9.089  22.282  0.00  0.00    -0.387 OA
ATOM     24  H   UNL     1      -2.661   8.761  23.071  0.00  0.00    +0.210 HD
ENDBRANCH   4  23
ENDBRANCH   1   4
BRANCH   1  25
ATOM     25  C   UNL     1      -4.288  12.141  21.060  0.00  0.00    +0.141 C 
BRANCH  25  28
ATOM     26  C   UNL     1      -4.866  11.827  18.679  0.00  0.00    +0.401 C 
ATOM     27  O   UNL     1      -6.032  12.206  18.814  0.00  0.00    -0.226 OA
ATOM     28  N   UNL     1      -3.984  11.758  19.676  0.00  0.00    -0.279 N 
ATOM     29  H   UNL     1      -3.053  11.425  19.468  0.00  0.00    +0.152 HD
BRANCH  26  30
ATOM     30  O   UNL     1      -4.412  11.427  17.383  0.00  0.00    -0.444 OA
BRANCH  30  31
ATOM     31  C   UNL     1      -5.026  12.249  16.387  0.00  0.00    +0.292 C 
BRANCH  31  33
ATOM     32  N   UNL     1      -3.194  11.390  14.957  0.00  0.00    -0.131 NA
ATOM     33  C   UNL     1      -4.172  12.323  15.188  0.00  0.00    +0.120 A 
ATOM     34  C   UNL     1      -4.189  13.225  14.148  0.00  0.00    +0.137 A 
ATOM     35  N   UNL     1      -3.266  12.730  13.275  0.00  0.00    -0.247 N 
ATOM     36  N   UNL     1      -2.632  11.659  13.786  0.00  0.00    -0.065 NA
BRANCH  35  37
ATOM     37  C   UNL     1      -2.955  13.205  11.942  0.00  0.00    +0.180 C 
BRANCH  37  38
ATOM     38  C   UNL     1      -1.652  13.971  11.921  0.00  0.00    -0.026 A 
ATOM     39  C   UNL     1      -0.536  13.465  11.239  0.00  0.00    +0.006 A 
ATOM     40  C   UNL     1       0.655  14.195  11.191  0.00  0.00    +0.015 A 
ATOM     41  C   UNL     1       0.753  15.432  11.834  0.00  0.00    +0.059 A 
ATOM     42  C   UNL     1      -0.350  15.937  12.538  0.00  0.00    +0.015 A 
ATOM     43  C   UNL     1      -1.538  15.201  12.590  0.00  0.00    +0.006 A 
BRANCH  41  44
ATOM     44  C   UNL     1       2.018  16.199  11.689  0.00  0.00    +0.337 C 
ATOM     45  O   UNL     1       2.815  15.987  10.790  0.00  0.00    -0.245 OA
BRANCH  44  46
ATOM     46  O   UNL     1       2.219  17.118  12.652  0.00  0.00    -0.477 OA
ATOM     47  H   UNL     1       1.956  16.845  13.549  0.00  0.00    +0.295 HD
ENDBRANCH  44  46
ENDBRANCH  41  44
ENDBRANCH  37  38
ENDBRANCH  35  37
ENDBRANCH  31  33
ENDBRANCH  30  31
ENDBRANCH  26  30
ENDBRANCH  25  28
ENDBRANCH   1  25
TORSDOF 17
