REMARK VINA RESULT:    -5.604      4.428      8.087
REMARK INTER + INTRA:         -12.031
REMARK INTER:                  -8.726
REMARK INTRA:                  -3.304
REMARK UNBOUND:                -2.004
REMARK  Name = lig_assembled_6.pdb
REMARK  17 active torsions:
REMARK  status: ('A' for Active; 'I' for Inactive)
REMARK    1  A    between atoms: _2  and  _10
REMARK    2  A    between atoms: _3  and  _13
REMARK    3  A    between atoms: _5  and  _21
REMARK    4  A    between atoms: _7  and  _8
REMARK    5  A    between atoms: _7  and  _21
REMARK    6  A    between atoms: _17  and  _37
REMARK    7  A    between atoms: _19  and  _25
REMARK    8  A    between atoms: _20  and  _24
REMARK    9  A    between atoms: _24  and  _25
REMARK   10  A    between atoms: _27  and  _28
REMARK   11  A    between atoms: _29  and  _30
REMARK   12  A    between atoms: _31  and  _33
REMARK   13  A    between atoms: _33  and  _34
REMARK   14  A    between atoms: _33  and  _35
REMARK   15  A    between atoms: _35  and  _36
REMARK   16  A    between atoms: _35  and  _37
REMARK   17  A    between atoms: _38  and  _40
REMARK                            x       y       z     vdW  Elec       q    Type
REMARK                         _______ _______ _______ _____ _____    ______ ____
ROOT
ATOM      1  C   UNL     1      -4.250   8.703  33.389  0.00  0.00    +0.163 C 
ENDROOT
BRANCH   1   2
ATOM      2  O   UNL     1      -3.016   9.395  33.642  0.00  0.00    -0.388 OA
ATOM      3  H   UNL     1      -3.163  10.084  34.295  0.00  0.00    +0.210 HD
ENDBRANCH   1   2
BRANCH   1   4
ATOM      4  C   UNL     1      -3.969   7.368  32.706  0.00  0.00    +0.141 C 
BRANCH   4   7
ATOM      5  C   UNL     1      -2.883   6.918  30.533  0.00  0.00    +0.401 C 
ATOM      6  O   UNL     1      -3.829   6.263  30.089  0.00  0.00    -0.226 OA
ATOM      7  N   UNL     1      -2.861   7.466  31.749  0.00  0.00    -0.279 N 
ATOM      8  H   UNL     1      -2.035   7.977  32.027  0.00  0.00    +0.152 HD
BRANCH   5   9
ATOM      9  O   UNL     1      -1.726   7.111  29.714  0.00  0.00    -0.444 OA
BRANCH   9  10
ATOM     10  C   UNL     1      -2.084   6.955  28.338  0.00  0.00    +0.292 C 
BRANCH  10  12
ATOM     11  N   UNL     1      -2.163   9.428  28.424  0.00  0.00    -0.131 NA
ATOM     12  C   UNL     1      -2.321   8.271  27.717  0.00  0.00    +0.121 A 
ATOM     13  C   UNL     1      -2.697   8.580  26.430  0.00  0.00    +0.143 A 
ATOM     14  N   UNL     1      -2.727   9.954  26.388  0.00  0.00    -0.220 N 
ATOM     15  N   UNL     1      -2.419  10.445  27.613  0.00  0.00    -0.060 NA
BRANCH  14  16
ATOM     16  C   UNL     1      -2.984  10.804  25.279  0.00  0.00    +0.067 A 
ATOM     17  C   UNL     1      -2.756  12.186  25.369  0.00  0.00    +0.034 A 
ATOM     18  C   UNL     1      -3.071  13.021  24.291  0.00  0.00    +0.086 A 
ATOM     19  C   UNL     1      -3.612  12.474  23.121  0.00  0.00    +0.273 A 
ATOM     20  C   UNL     1      -3.818  11.094  23.012  0.00  0.00    +0.086 A 
ATOM     21  C   UNL     1      -3.501  10.261  24.091  0.00  0.00    +0.034 A 
BRANCH  19  22
ATOM     22  N   UNL     1      -3.981  13.362  22.010  0.00  0.00    +0.080 N 
ATOM     23  O   UNL     1      -3.263  14.350  21.802  0.00  0.00    +0.041 OA
ATOM     24  O   UNL     1      -4.990  13.073  21.353  0.00  0.00    -0.576 OA
ENDBRANCH  19  22
ENDBRANCH  14  16
ENDBRANCH  10  12
ENDBRANCH   9  10
ENDBRANCH   5   9
ENDBRANCH   4   7
ENDBRANCH   1   4
BRANCH   1  25
ATOM     25  C   UNL     1      -5.183   9.547  32.504  0.00  0.00    +0.175 C 
BRANCH  25  26
ATOM     26  C   UNL     1      -4.434  10.688  31.799  0.00  0.00    +0.176 C 
ATOM     27  O   UNL     1      -4.513  11.866  32.649  0.00  0.00    -0.332 OA
ATOM     28  C   UNL     1      -3.759  13.034  32.184  0.00  0.00    +0.277 C 
ATOM     29  C   UNL     1      -4.171  13.404  30.738  0.00  0.00    +0.110 C 
ATOM     30  C   UNL     1      -4.133  12.176  29.804  0.00  0.00    +0.143 C 
ATOM     31  C   UNL     1      -4.947  11.019  30.386  0.00  0.00    +0.133 C 
BRANCH  31  32
ATOM     32  N   UNL     1      -4.832   9.827  29.530  0.00  0.00    -0.308 N 
ATOM     33  H   UNL     1      -3.912   9.435  29.388  0.00  0.00    +0.149 HD
ATOM     34  C   UNL     1      -5.865   9.231  28.928  0.00  0.00    +0.210 C 
ATOM     35  C   UNL     1      -7.251   9.868  29.143  0.00  0.00    +0.109 C 
ATOM     36  O   UNL     1      -5.741   8.225  28.229  0.00  0.00    -0.276 OA
ENDBRANCH  31  32
BRANCH  28  37
ATOM     37  C   UNL     1      -2.241  12.761  32.234  0.00  0.00    +0.414 C 
ATOM     38  O   UNL     1      -1.821  11.608  32.318  0.00  0.00    -0.240 OA
ATOM     39  O   UNL     1      -1.438  13.693  32.190  0.00  0.00    -0.240 OA
ENDBRANCH  28  37
BRANCH  30  40
ATOM     40  O   UNL     1      -4.663  12.527  28.525  0.00  0.00    -0.390 OA
ATOM     41  H   UNL     1      -5.603  12.332  28.502  0.00  0.00    +0.210 HD
ENDBRANCH  30  40
BRANCH  28  42
ATOM     42  O   UNL     1      -4.083  14.151  33.052  0.00  0.00    -0.343 OA
ATOM     43  C   UNL     1      -5.424  14.679  32.895  0.00  0.00    +0.198 C 
ENDBRANCH  28  42
ENDBRANCH  25  26
BRANCH  25  44
ATOM     44  O   UNL     1      -6.269  10.076  33.290  0.00  0.00    -0.387 OA
ATOM     45  H   UNL     1      -7.089   9.998  32.797  0.00  0.00    +0.210 HD
ENDBRANCH  25  44
ENDBRANCH   1  25
TORSDOF 15
