REMARK VINA RESULT:    -4.916      7.992     13.365
REMARK INTER + INTRA:         -11.350
REMARK INTER:                  -8.840
REMARK INTRA:                  -2.510
REMARK UNBOUND:                -2.841
REMARK  Name = lig_assembled_86.pdb
REMARK  17 active torsions:
REMARK  status: ('A' for Active; 'I' for Inactive)
REMARK    1  A    between atoms: _2  and  _10
REMARK    2  A    between atoms: _3  and  _13
REMARK    3  A    between atoms: _5  and  _21
REMARK    4  A    between atoms: _7  and  _8
REMARK    5  A    between atoms: _7  and  _21
REMARK    6  A    between atoms: _17  and  _37
REMARK    7  A    between atoms: _19  and  _25
REMARK    8  A    between atoms: _20  and  _24
REMARK    9  A    between atoms: _24  and  _25
REMARK   10  A    between atoms: _27  and  _28
REMARK   11  A    between atoms: _29  and  _30
REMARK   12  A    between atoms: _31  and  _33
REMARK   13  A    between atoms: _33  and  _34
REMARK   14  A    between atoms: _33  and  _35
REMARK   15  A    between atoms: _35  and  _36
REMARK   16  A    between atoms: _35  and  _37
REMARK   17  A    between atoms: _38  and  _40
REMARK                            x       y       z     vdW  Elec       q    Type
REMARK                         _______ _______ _______ _____ _____    ______ ____
ROOT
ATOM      1  C   UNL     1      -2.182   9.054  28.387  0.00  0.00    +0.163 C 
ENDROOT
BRANCH   1   2
ATOM      2  O   UNL     1      -1.918   9.642  27.103  0.00  0.00    -0.388 OA
ATOM      3  H   UNL     1      -2.554   9.314  26.463  0.00  0.00    +0.210 HD
ENDBRANCH   1   2
BRANCH   1   4
ATOM      4  C   UNL     1      -2.029   7.538  28.308  0.00  0.00    +0.141 C 
BRANCH   4   7
ATOM      5  C   UNL     1      -2.288   6.351  26.157  0.00  0.00    +0.401 C 
ATOM      6  O   UNL     1      -1.075   6.210  25.981  0.00  0.00    -0.226 OA
ATOM      7  N   UNL     1      -2.822   6.965  27.213  0.00  0.00    -0.279 N 
ATOM      8  H   UNL     1      -3.828   7.040  27.264  0.00  0.00    +0.152 HD
BRANCH   5   9
ATOM      9  O   UNL     1      -3.195   5.837  25.179  0.00  0.00    -0.444 OA
BRANCH   9  10
ATOM     10  C   UNL     1      -4.359   6.666  25.124  0.00  0.00    +0.292 C 
BRANCH  10  12
ATOM     11  N   UNL     1      -3.813   7.608  22.896  0.00  0.00    -0.131 NA
ATOM     12  C   UNL     1      -4.130   7.805  24.214  0.00  0.00    +0.120 A 
ATOM     13  C   UNL     1      -4.194   9.156  24.461  0.00  0.00    +0.137 A 
ATOM     14  N   UNL     1      -3.943   9.726  23.250  0.00  0.00    -0.248 N 
ATOM     15  N   UNL     1      -3.684   8.795  22.317  0.00  0.00    -0.065 NA
BRANCH  14  16
ATOM     16  C   UNL     1      -3.947  11.145  22.925  0.00  0.00    +0.112 C 
ATOM     17  C   UNL     1      -2.956  11.476  21.790  0.00  0.00    +0.045 C 
ATOM     18  C   UNL     1      -3.521  12.387  20.696  0.00  0.00    +0.059 C 
ATOM     19  C   UNL     1      -4.452  11.612  19.757  0.00  0.00    +0.020 C 
ATOM     20  C   UNL     1      -5.848  11.830  20.334  0.00  0.00    +0.020 C 
ATOM     21  C   UNL     1      -5.614  12.645  21.608  0.00  0.00    +0.059 C 
ATOM     22  N   UNL     1      -4.427  13.408  21.221  0.00  0.00    -0.299 NA
ATOM     23  C   UNL     1      -3.887  14.312  22.218  0.00  0.00    +0.105 C 
ATOM     24  C   UNL     1      -5.373  11.732  22.818  0.00  0.00    +0.045 C 
ENDBRANCH  14  16
ENDBRANCH  10  12
ENDBRANCH   9  10
ENDBRANCH   5   9
ENDBRANCH   4   7
ENDBRANCH   1   4
BRANCH   1  25
ATOM     25  C   UNL     1      -3.600   9.403  28.871  0.00  0.00    +0.175 C 
BRANCH  25  26
ATOM     26  C   UNL     1      -3.616  10.659  29.754  0.00  0.00    +0.176 C 
ATOM     27  O   UNL     1      -4.304  10.327  30.992  0.00  0.00    -0.332 OA
ATOM     28  C   UNL     1      -4.325  11.383  32.008  0.00  0.00    +0.277 C 
ATOM     29  C   UNL     1      -4.908  12.691  31.419  0.00  0.00    +0.110 C 
ATOM     30  C   UNL     1      -4.229  13.067  30.086  0.00  0.00    +0.143 C 
ATOM     31  C   UNL     1      -4.262  11.896  29.103  0.00  0.00    +0.133 C 
BRANCH  31  32
ATOM     32  N   UNL     1      -3.536  12.238  27.870  0.00  0.00    -0.308 N 
ATOM     33  H   UNL     1      -2.543  12.412  27.940  0.00  0.00    +0.149 HD
ATOM     34  C   UNL     1      -4.103  12.334  26.664  0.00  0.00    +0.210 C 
ATOM     35  C   UNL     1      -5.622  12.088  26.596  0.00  0.00    +0.109 C 
ATOM     36  O   UNL     1      -3.467  12.607  25.646  0.00  0.00    -0.276 OA
ENDBRANCH  31  32
BRANCH  28  37
ATOM     37  C   UNL     1      -2.905  11.650  32.549  0.00  0.00    +0.414 C 
ATOM     38  O   UNL     1      -2.634  12.728  33.076  0.00  0.00    -0.240 OA
ATOM     39  O   UNL     1      -2.030  10.788  32.458  0.00  0.00    -0.240 OA
ENDBRANCH  28  37
BRANCH  30  40
ATOM     40  O   UNL     1      -4.897  14.188  29.505  0.00  0.00    -0.390 OA
ATOM     41  H   UNL     1      -4.629  14.281  28.587  0.00  0.00    +0.210 HD
ENDBRANCH  30  40
BRANCH  28  42
ATOM     42  O   UNL     1      -5.185  10.946  33.092  0.00  0.00    -0.343 OA
ATOM     43  C   UNL     1      -6.599  10.910  32.774  0.00  0.00    +0.198 C 
ENDBRANCH  28  42
ENDBRANCH  25  26
BRANCH  25  44
ATOM     44  O   UNL     1      -4.170   8.287  29.584  0.00  0.00    -0.387 OA
ATOM     45  H   UNL     1      -3.752   7.473  29.292  0.00  0.00    +0.210 HD
ENDBRANCH  25  44
ENDBRANCH   1  25
TORSDOF 14
