REMARK VINA RESULT:    -4.799      3.495     10.236
REMARK INTER + INTRA:         -10.800
REMARK INTER:                  -8.553
REMARK INTRA:                  -2.247
REMARK UNBOUND:                -2.494
REMARK  Name = lig_assembled_56.pdb
REMARK  16 active torsions:
REMARK  status: ('A' for Active; 'I' for Inactive)
REMARK    1  A    between atoms: _2  and  _10
REMARK    2  A    between atoms: _5  and  _18
REMARK    3  A    between atoms: _7  and  _8
REMARK    4  A    between atoms: _7  and  _18
REMARK    5  A    between atoms: _14  and  _34
REMARK    6  A    between atoms: _16  and  _22
REMARK    7  A    between atoms: _17  and  _21
REMARK    8  A    between atoms: _21  and  _22
REMARK    9  A    between atoms: _24  and  _25
REMARK   10  A    between atoms: _26  and  _27
REMARK   11  A    between atoms: _28  and  _30
REMARK   12  A    between atoms: _30  and  _31
REMARK   13  A    between atoms: _30  and  _32
REMARK   14  A    between atoms: _32  and  _33
REMARK   15  A    between atoms: _32  and  _34
REMARK   16  A    between atoms: _35  and  _37
REMARK                            x       y       z     vdW  Elec       q    Type
REMARK                         _______ _______ _______ _____ _____    ______ ____
ROOT
ATOM      1  C   UNL     1      -4.248   8.979  23.858  0.00  0.00    +0.163 C 
ENDROOT
BRANCH   1   2
ATOM      2  O   UNL     1      -3.822   8.267  22.685  0.00  0.00    -0.388 OA
ATOM      3  H   UNL     1      -2.926   7.945  22.813  0.00  0.00    +0.210 HD
ENDBRANCH   1   2
BRANCH   1   4
ATOM      4  C   UNL     1      -4.297   8.034  25.054  0.00  0.00    +0.141 C 
BRANCH   4   7
ATOM      5  C   UNL     1      -2.572   8.374  26.791  0.00  0.00    +0.401 C 
ATOM      6  O   UNL     1      -1.795   7.543  26.315  0.00  0.00    -0.226 OA
ATOM      7  N   UNL     1      -3.766   8.663  26.270  0.00  0.00    -0.279 N 
ATOM      8  H   UNL     1      -4.336   9.353  26.738  0.00  0.00    +0.152 HD
BRANCH   5   9
ATOM      9  O   UNL     1      -2.194   9.080  27.975  0.00  0.00    -0.444 OA
BRANCH   9  10
ATOM     10  C   UNL     1      -3.106   8.764  29.031  0.00  0.00    +0.292 C 
BRANCH  10  12
ATOM     11  N   UNL     1      -2.831   9.462  31.389  0.00  0.00    -0.131 NA
ATOM     12  C   UNL     1      -3.048   9.796  30.084  0.00  0.00    +0.121 A 
ATOM     13  C   UNL     1      -3.182  11.163  29.986  0.00  0.00    +0.143 A 
ATOM     14  N   UNL     1      -3.019  11.628  31.271  0.00  0.00    -0.220 N 
ATOM     15  N   UNL     1      -2.817  10.578  32.104  0.00  0.00    -0.060 NA
BRANCH  14  16
ATOM     16  C   UNL     1      -3.031  12.965  31.740  0.00  0.00    +0.070 A 
ATOM     17  C   UNL     1      -2.485  13.296  32.982  0.00  0.00    +0.047 A 
ATOM     18  C   UNL     1      -2.545  14.621  33.386  0.00  0.00    +0.113 A 
ATOM     19  N   UNL     1      -3.097  15.608  32.650  0.00  0.00    -0.263 NA
ATOM     20  C   UNL     1      -3.615  15.261  31.452  0.00  0.00    +0.113 A 
ATOM     21  C   UNL     1      -3.605  13.969  30.955  0.00  0.00    +0.047 A 
ENDBRANCH  14  16
ENDBRANCH  10  12
ENDBRANCH   9  10
ENDBRANCH   5   9
ENDBRANCH   4   7
ENDBRANCH   1   4
BRANCH   1  22
ATOM     22  C   UNL     1      -5.635   9.610  23.644  0.00  0.00    +0.175 C 
BRANCH  22  23
ATOM     23  C   UNL     1      -5.555  10.935  22.872  0.00  0.00    +0.176 C 
ATOM     24  O   UNL     1      -5.223  10.628  21.490  0.00  0.00    -0.332 OA
ATOM     25  C   UNL     1      -5.207  11.771  20.573  0.00  0.00    +0.277 C 
ATOM     26  C   UNL     1      -4.263  12.878  21.104  0.00  0.00    +0.110 C 
ATOM     27  C   UNL     1      -4.557  13.216  22.580  0.00  0.00    +0.143 C 
ATOM     28  C   UNL     1      -4.552  11.955  23.444  0.00  0.00    +0.133 C 
BRANCH  28  29
ATOM     29  N   UNL     1      -4.919  12.279  24.832  0.00  0.00    -0.308 N 
ATOM     30  H   UNL     1      -5.888  12.489  25.027  0.00  0.00    +0.149 HD
ATOM     31  C   UNL     1      -4.055  12.313  25.850  0.00  0.00    +0.210 C 
ATOM     32  C   UNL     1      -2.582  12.014  25.515  0.00  0.00    +0.109 C 
ATOM     33  O   UNL     1      -4.393  12.574  27.005  0.00  0.00    -0.276 OA
ENDBRANCH  28  29
BRANCH  25  34
ATOM     34  C   UNL     1      -6.627  12.347  20.392  0.00  0.00    +0.414 C 
ATOM     35  O   UNL     1      -6.787  13.552  20.202  0.00  0.00    -0.240 OA
ATOM     36  O   UNL     1      -7.611  11.608  20.435  0.00  0.00    -0.240 OA
ENDBRANCH  25  34
BRANCH  27  37
ATOM     37  O   UNL     1      -3.572  14.126  23.071  0.00  0.00    -0.390 OA
ATOM     38  H   UNL     1      -3.938  14.634  23.798  0.00  0.00    +0.210 HD
ENDBRANCH  27  37
BRANCH  25  39
ATOM     39  O   UNL     1      -4.699  11.312  19.293  0.00  0.00    -0.343 OA
ATOM     40  C   UNL     1      -5.006   9.932  18.972  0.00  0.00    +0.198 C 
ENDBRANCH  25  39
ENDBRANCH  22  23
BRANCH  22  41
ATOM     41  O   UNL     1      -6.288   9.813  24.913  0.00  0.00    -0.387 OA
ATOM     42  H   UNL     1      -7.161   9.414  24.892  0.00  0.00    +0.210 HD
ENDBRANCH  22  41
ENDBRANCH   1  22
TORSDOF 14
