REMARK VINA RESULT:    -4.825      2.205      2.987
REMARK INTER + INTRA:         -11.264
REMARK INTER:                  -8.138
REMARK INTRA:                  -3.126
REMARK UNBOUND:                -2.913
REMARK  Name = lig_assembled_93.pdb
REMARK  16 active torsions:
REMARK  status: ('A' for Active; 'I' for Inactive)
REMARK    1  A    between atoms: _2  and  _9
REMARK    2  A    between atoms: _4  and  _18
REMARK    3  A    between atoms: _6  and  _7
REMARK    4  A    between atoms: _6  and  _18
REMARK    5  A    between atoms: _14  and  _34
REMARK    6  A    between atoms: _16  and  _22
REMARK    7  A    between atoms: _17  and  _21
REMARK    8  A    between atoms: _21  and  _22
REMARK    9  A    between atoms: _24  and  _25
REMARK   10  A    between atoms: _26  and  _27
REMARK   11  A    between atoms: _28  and  _30
REMARK   12  A    between atoms: _30  and  _31
REMARK   13  A    between atoms: _30  and  _32
REMARK   14  A    between atoms: _32  and  _33
REMARK   15  A    between atoms: _32  and  _34
REMARK   16  A    between atoms: _35  and  _37
REMARK                            x       y       z     vdW  Elec       q    Type
REMARK                         _______ _______ _______ _____ _____    ______ ____
ROOT
ATOM      1  C   UNL     1      -5.480   8.243  24.966  0.00  0.00    +0.163 C 
ENDROOT
BRANCH   1   2
ATOM      2  O   UNL     1      -5.767   8.844  26.240  0.00  0.00    -0.388 OA
ATOM      3  H   UNL     1      -6.041   8.164  26.860  0.00  0.00    +0.210 HD
ENDBRANCH   1   2
BRANCH   1   4
ATOM      4  C   UNL     1      -4.023   7.794  24.918  0.00  0.00    +0.141 C 
BRANCH   4   7
ATOM      5  C   UNL     1      -2.199   7.459  26.551  0.00  0.00    +0.401 C 
ATOM      6  O   UNL     1      -1.637   6.586  25.886  0.00  0.00    -0.226 OA
ATOM      7  N   UNL     1      -3.322   8.073  26.178  0.00  0.00    -0.279 N 
ATOM      8  H   UNL     1      -3.713   8.770  26.797  0.00  0.00    +0.152 HD
BRANCH   5   9
ATOM      9  O   UNL     1      -1.633   7.850  27.805  0.00  0.00    -0.444 OA
BRANCH   9  10
ATOM     10  C   UNL     1      -2.564   7.578  28.856  0.00  0.00    +0.292 C 
BRANCH  10  12
ATOM     11  N   UNL     1      -4.527   9.074  28.902  0.00  0.00    -0.131 NA
ATOM     12  C   UNL     1      -3.243   8.820  29.271  0.00  0.00    +0.121 A 
ATOM     13  C   UNL     1      -2.787   9.866  30.038  0.00  0.00    +0.143 A 
ATOM     14  N   UNL     1      -3.848  10.750  30.132  0.00  0.00    -0.219 N 
ATOM     15  N   UNL     1      -4.878  10.240  29.421  0.00  0.00    -0.060 NA
BRANCH  14  16
ATOM     16  C   UNL     1      -3.908  11.986  30.849  0.00  0.00    +0.080 A 
ATOM     17  C   UNL     1      -3.624  13.174  30.133  0.00  0.00    +0.029 A 
ATOM     18  C   UNL     1      -3.639  14.427  30.751  0.00  0.00    +0.002 A 
ATOM     19  C   UNL     1      -3.939  14.532  32.098  0.00  0.00    +0.001 A 
ATOM     20  C   UNL     1      -4.229  13.381  32.827  0.00  0.00    +0.016 A 
ATOM     21  C   UNL     1      -4.220  12.106  32.220  0.00  0.00    +0.039 A 
ATOM     22  I   UNL     1      -4.705  10.562  33.583  0.00  0.00    -0.042 I 
ENDBRANCH  14  16
ENDBRANCH  10  12
ENDBRANCH   9  10
ENDBRANCH   5   9
ENDBRANCH   4   7
ENDBRANCH   1   4
BRANCH   1  23
ATOM     23  C   UNL     1      -5.751   9.231  23.819  0.00  0.00    +0.175 C 
BRANCH  23  24
ATOM     24  C   UNL     1      -4.814  10.447  23.869  0.00  0.00    +0.176 C 
ATOM     25  O   UNL     1      -5.211  11.271  25.000  0.00  0.00    -0.332 OA
ATOM     26  C   UNL     1      -4.357  12.431  25.270  0.00  0.00    +0.277 C 
ATOM     27  C   UNL     1      -4.222  13.311  24.003  0.00  0.00    +0.110 C 
ATOM     28  C   UNL     1      -3.832  12.474  22.767  0.00  0.00    +0.143 C 
ATOM     29  C   UNL     1      -4.785  11.292  22.582  0.00  0.00    +0.133 C 
BRANCH  29  30
ATOM     30  N   UNL     1      -4.352  10.453  21.454  0.00  0.00    -0.308 N 
ATOM     31  H   UNL     1      -3.456   9.991  21.525  0.00  0.00    +0.149 HD
ATOM     32  C   UNL     1      -5.065  10.262  20.341  0.00  0.00    +0.210 C 
ATOM     33  C   UNL     1      -6.414  11.000  20.251  0.00  0.00    +0.109 C 
ATOM     34  O   UNL     1      -4.684   9.541  19.417  0.00  0.00    -0.276 OA
ENDBRANCH  29  30
BRANCH  26  35
ATOM     35  C   UNL     1      -2.956  11.982  25.737  0.00  0.00    +0.414 C 
ATOM     36  O   UNL     1      -2.840  11.121  26.608  0.00  0.00    -0.240 OA
ATOM     37  O   UNL     1      -1.944  12.480  25.243  0.00  0.00    -0.240 OA
ENDBRANCH  26  35
BRANCH  28  38
ATOM     38  O   UNL     1      -3.867  13.294  21.599  0.00  0.00    -0.390 OA
ATOM     39  H   UNL     1      -3.367  14.098  21.757  0.00  0.00    +0.210 HD
ENDBRANCH  28  38
BRANCH  26  40
ATOM     40  O   UNL     1      -4.988  13.221  26.311  0.00  0.00    -0.343 OA
ATOM     41  C   UNL     1      -6.048  12.546  27.034  0.00  0.00    +0.198 C 
ENDBRANCH  26  40
ENDBRANCH  23  24
BRANCH  23  42
ATOM     42  O   UNL     1      -7.126   9.662  23.849  0.00  0.00    -0.387 OA
ATOM     43  H   UNL     1      -7.526   9.398  24.681  0.00  0.00    +0.210 HD
ENDBRANCH  23  42
ENDBRANCH   1  23
TORSDOF 14
