REMARK VINA RESULT:    -4.998      3.398      5.807
REMARK INTER + INTRA:         -12.537
REMARK INTER:                 -10.093
REMARK INTRA:                  -2.443
REMARK UNBOUND:                -3.157
REMARK  Name = lig_assembled_64.pdb
REMARK  19 active torsions:
REMARK  status: ('A' for Active; 'I' for Inactive)
REMARK    1  A    between atoms: _2  and  _10
REMARK    2  A    between atoms: _5  and  _27
REMARK    3  A    between atoms: _7  and  _8
REMARK    4  A    between atoms: _7  and  _27
REMARK    5  A    between atoms: _12  and  _13
REMARK    6  A    between atoms: _13  and  _21
REMARK    7  A    between atoms: _14  and  _15
REMARK    8  A    between atoms: _23  and  _43
REMARK    9  A    between atoms: _25  and  _31
REMARK   10  A    between atoms: _26  and  _30
REMARK   11  A    between atoms: _30  and  _31
REMARK   12  A    between atoms: _33  and  _34
REMARK   13  A    between atoms: _35  and  _36
REMARK   14  A    between atoms: _37  and  _39
REMARK   15  A    between atoms: _39  and  _40
REMARK   16  A    between atoms: _39  and  _41
REMARK   17  A    between atoms: _41  and  _42
REMARK   18  A    between atoms: _41  and  _43
REMARK   19  A    between atoms: _44  and  _46
REMARK                            x       y       z     vdW  Elec       q    Type
REMARK                         _______ _______ _______ _____ _____    ______ ____
ROOT
ATOM      1  C   UNL     1      -4.891  10.247  19.607  0.00  0.00    +0.401 C 
ATOM      2  O   UNL     1      -5.298   9.085  19.685  0.00  0.00    -0.226 OA
ATOM      3  N   UNL     1      -5.344  11.138  18.723  0.00  0.00    -0.279 N 
ATOM      4  H   UNL     1      -4.955  12.070  18.744  0.00  0.00    +0.152 HD
ENDROOT
BRANCH   3   5
ATOM      5  C   UNL     1      -6.376  10.840  17.723  0.00  0.00    +0.141 C 
BRANCH   5   6
ATOM      6  C   UNL     1      -5.795  10.752  16.315  0.00  0.00    +0.163 C 
BRANCH   6   7
ATOM      7  O   UNL     1      -4.933  11.875  16.068  0.00  0.00    -0.388 OA
ATOM      8  H   UNL     1      -4.827  11.996  15.121  0.00  0.00    +0.210 HD
ENDBRANCH   6   7
BRANCH   6   9
ATOM      9  C   UNL     1      -5.029   9.427  16.157  0.00  0.00    +0.175 C 
BRANCH   9  10
ATOM     10  C   UNL     1      -4.050   9.462  14.975  0.00  0.00    +0.176 C 
ATOM     11  O   UNL     1      -4.749  10.027  13.832  0.00  0.00    -0.332 OA
ATOM     12  C   UNL     1      -3.935  10.238  12.631  0.00  0.00    +0.277 C 
ATOM     13  C   UNL     1      -3.232   8.922  12.216  0.00  0.00    +0.110 C 
ATOM     14  C   UNL     1      -2.501   8.267  13.407  0.00  0.00    +0.143 C 
ATOM     15  C   UNL     1      -3.440   8.098  14.602  0.00  0.00    +0.133 C 
BRANCH  15  16
ATOM     16  N   UNL     1      -2.710   7.554  15.758  0.00  0.00    -0.308 N 
ATOM     17  H   UNL     1      -1.995   8.131  16.179  0.00  0.00    +0.149 HD
ATOM     18  C   UNL     1      -2.931   6.347  16.287  0.00  0.00    +0.210 C 
ATOM     19  C   UNL     1      -4.009   5.482  15.607  0.00  0.00    +0.109 C 
ATOM     20  O   UNL     1      -2.314   5.923  17.265  0.00  0.00    -0.276 OA
ENDBRANCH  15  16
BRANCH  12  21
ATOM     21  C   UNL     1      -2.876  11.333  12.874  0.00  0.00    +0.414 C 
ATOM     22  O   UNL     1      -1.775  11.263  12.330  0.00  0.00    -0.240 OA
ATOM     23  O   UNL     1      -3.123  12.288  13.612  0.00  0.00    -0.240 OA
ENDBRANCH  12  21
BRANCH  12  24
ATOM     24  O   UNL     1      -4.819  10.643  11.555  0.00  0.00    -0.343 OA
ATOM     25  C   UNL     1      -4.366  10.289  10.224  0.00  0.00    +0.198 C 
ENDBRANCH  12  24
BRANCH  14  26
ATOM     26  O   UNL     1      -1.998   6.988  13.019  0.00  0.00    -0.390 OA
ATOM     27  H   UNL     1      -1.784   6.998  12.084  0.00  0.00    +0.210 HD
ENDBRANCH  14  26
ENDBRANCH   9  10
BRANCH   9  28
ATOM     28  O   UNL     1      -5.956   8.334  16.002  0.00  0.00    -0.387 OA
ATOM     29  H   UNL     1      -6.242   8.284  15.087  0.00  0.00    +0.210 HD
ENDBRANCH   9  28
ENDBRANCH   6   9
ENDBRANCH   5   6
ENDBRANCH   3   5
BRANCH   1  30
ATOM     30  O   UNL     1      -3.876  10.689  20.511  0.00  0.00    -0.444 OA
BRANCH  30  31
ATOM     31  C   UNL     1      -4.127  12.047  20.885  0.00  0.00    +0.292 C 
BRANCH  31  33
ATOM     32  N   UNL     1      -3.814  13.477  22.888  0.00  0.00    -0.131 NA
ATOM     33  C   UNL     1      -3.907  12.234  22.332  0.00  0.00    +0.121 A 
ATOM     34  C   UNL     1      -3.765  11.289  23.321  0.00  0.00    +0.143 A 
ATOM     35  N   UNL     1      -3.577  12.009  24.477  0.00  0.00    -0.220 N 
ATOM     36  N   UNL     1      -3.616  13.333  24.193  0.00  0.00    -0.060 NA
BRANCH  35  37
ATOM     37  C   UNL     1      -3.374  11.525  25.792  0.00  0.00    +0.071 A 
ATOM     38  C   UNL     1      -2.744  10.304  26.001  0.00  0.00    +0.063 A 
ATOM     39  CA  UNL     1      -2.577   9.888  27.308  0.00  0.00    +0.150 A 
ATOM     40  N   UNL     1      -2.990  10.583  28.406  0.00  0.00    -0.240 NA
ATOM     41  C   UNL     1      -3.619  11.771  28.192  0.00  0.00    +0.074 A 
ATOM     42  C   UNL     1      -3.812  12.270  26.899  0.00  0.00    +0.056 A 
BRANCH  41  43
ATOM     43  C   UNL     1      -4.098  12.470  29.409  0.00  0.00    +0.000 A 
ATOM     44  C   UNL     1      -3.473  12.308  30.659  0.00  0.00    +0.010 A 
ATOM     45  C   UNL     1      -3.912  13.003  31.794  0.00  0.00    +0.001 A 
ATOM     46  C   UNL     1      -4.988  13.879  31.704  0.00  0.00    +0.000 A 
ATOM     47  C   UNL     1      -5.631  14.054  30.483  0.00  0.00    +0.001 A 
ATOM     48  C   UNL     1      -5.191  13.358  29.352  0.00  0.00    +0.010 A 
ENDBRANCH  41  43
BRANCH  39  49
ATOM     49  C   UNL     1      -1.906   8.584  27.579  0.00  0.00    +0.355 C 
ATOM     50  OXT UNL     1      -1.634   8.166  28.690  0.00  0.00    -0.243 OA
BRANCH  49  51
ATOM     51  O   UNL     1      -1.640   7.933  26.424  0.00  0.00    -0.476 OA
ATOM     52  H   UNL     1      -1.830   6.973  26.545  0.00  0.00    +0.295 HD
ENDBRANCH  49  51
ENDBRANCH  39  49
ENDBRANCH  35  37
ENDBRANCH  31  33
ENDBRANCH  30  31
ENDBRANCH   1  30
TORSDOF 17
