REMARK VINA RESULT:    -4.806      3.618      9.646
REMARK INTER + INTRA:         -11.412
REMARK INTER:                  -8.396
REMARK INTRA:                  -3.016
REMARK UNBOUND:                -3.093
REMARK  Name = lig_assembled_80.pdb
REMARK  16 active torsions:
REMARK  status: ('A' for Active; 'I' for Inactive)
REMARK    1  A    between atoms: _2  and  _10
REMARK    2  A    between atoms: _5  and  _24
REMARK    3  A    between atoms: _7  and  _8
REMARK    4  A    between atoms: _7  and  _24
REMARK    5  A    between atoms: _20  and  _40
REMARK    6  A    between atoms: _22  and  _28
REMARK    7  A    between atoms: _23  and  _27
REMARK    8  A    between atoms: _27  and  _28
REMARK    9  A    between atoms: _30  and  _31
REMARK   10  A    between atoms: _32  and  _33
REMARK   11  A    between atoms: _34  and  _36
REMARK   12  A    between atoms: _36  and  _37
REMARK   13  A    between atoms: _36  and  _38
REMARK   14  A    between atoms: _38  and  _39
REMARK   15  A    between atoms: _38  and  _40
REMARK   16  A    between atoms: _41  and  _43
REMARK                            x       y       z     vdW  Elec       q    Type
REMARK                         _______ _______ _______ _____ _____    ______ ____
ROOT
ATOM      1  C   UNL     1      -3.104  13.155  24.314  0.00  0.00    +0.141 C 
ENDROOT
BRANCH   1   4
ATOM      2  C   UNL     1      -4.547  14.162  22.579  0.00  0.00    +0.401 C 
ATOM      3  O   UNL     1      -3.805  15.128  22.389  0.00  0.00    -0.226 OA
ATOM      4  N   UNL     1      -4.301  13.195  23.464  0.00  0.00    -0.279 N 
ATOM      5  H   UNL     1      -4.975  12.448  23.555  0.00  0.00    +0.152 HD
BRANCH   2   6
ATOM      6  O   UNL     1      -5.754  14.053  21.820  0.00  0.00    -0.444 OA
BRANCH   6   7
ATOM      7  C   UNL     1      -6.202  12.695  21.827  0.00  0.00    +0.292 C 
BRANCH   7   9
ATOM      8  N   UNL     1      -4.351  11.498  20.727  0.00  0.00    -0.131 NA
ATOM      9  C   UNL     1      -5.638  11.959  20.678  0.00  0.00    +0.120 A 
ATOM     10  C   UNL     1      -6.204  11.614  19.471  0.00  0.00    +0.138 A 
ATOM     11  N   UNL     1      -5.186  10.989  18.801  0.00  0.00    -0.239 N 
ATOM     12  N   UNL     1      -4.085  10.891  19.578  0.00  0.00    -0.065 NA
BRANCH  11  13
ATOM     13  C   UNL     1      -5.199  10.300  17.506  0.00  0.00    +0.195 C 
ATOM     14  C   UNL     1      -4.236  11.017  16.569  0.00  0.00    +0.041 C 
ATOM     15  C   UNL     1      -4.412  10.545  15.141  0.00  0.00    +0.039 C 
ATOM     16  C   UNL     1      -3.604   9.306  14.912  0.00  0.00    -0.026 A 
ATOM     17  C   UNL     1      -3.867   8.105  15.574  0.00  0.00    +0.037 A 
ATOM     18  C   UNL     1      -3.144   6.953  15.217  0.00  0.00    +0.023 A 
ATOM     19  C   UNL     1      -2.095   7.016  14.302  0.00  0.00    +0.002 A 
ATOM     20  C   UNL     1      -1.784   8.225  13.698  0.00  0.00    +0.000 A 
ATOM     21  N   UNL     1      -4.752   7.940  16.654  0.00  0.00    -0.284 N 
ATOM     22  H   UNL     1      -4.835   6.986  16.992  0.00  0.00    +0.155 HD
ATOM     23  C   UNL     1      -2.549   9.355  13.981  0.00  0.00    +0.005 A 
ATOM     24  C   UNL     1      -5.051   8.792  17.678  0.00  0.00    +0.242 C 
ATOM     25  O   UNL     1      -5.309   8.236  18.752  0.00  0.00    -0.273 OA
ENDBRANCH  11  13
ENDBRANCH   7   9
ENDBRANCH   6   7
ENDBRANCH   2   6
ENDBRANCH   1   4
BRANCH   1  26
ATOM     26  C   UNL     1      -2.877  11.769  24.910  0.00  0.00    +0.163 C 
BRANCH  26  27
ATOM     27  O   UNL     1      -3.124  11.797  26.326  0.00  0.00    -0.388 OA
ATOM     28  H   UNL     1      -2.636  11.088  26.750  0.00  0.00    +0.210 HD
ENDBRANCH  26  27
BRANCH  26  29
ATOM     29  C   UNL     1      -3.795  10.752  24.211  0.00  0.00    +0.175 C 
BRANCH  29  30
ATOM     30  C   UNL     1      -4.125   9.555  25.116  0.00  0.00    +0.176 C 
ATOM     31  O   UNL     1      -2.878   8.880  25.437  0.00  0.00    -0.332 OA
ATOM     32  C   UNL     1      -2.987   7.766  26.384  0.00  0.00    +0.277 C 
ATOM     33  C   UNL     1      -4.029   6.734  25.889  0.00  0.00    +0.110 C 
ATOM     34  C   UNL     1      -5.362   7.409  25.504  0.00  0.00    +0.143 C 
ATOM     35  C   UNL     1      -5.132   8.555  24.518  0.00  0.00    +0.133 C 
BRANCH  35  36
ATOM     36  N   UNL     1      -6.398   9.246  24.227  0.00  0.00    -0.308 N 
ATOM     37  H   UNL     1      -6.867   9.713  24.990  0.00  0.00    +0.149 HD
ATOM     38  C   UNL     1      -6.968   9.296  23.020  0.00  0.00    +0.210 C 
ATOM     39  C   UNL     1      -6.242   8.552  21.883  0.00  0.00    +0.109 C 
ATOM     40  O   UNL     1      -8.022   9.895  22.803  0.00  0.00    -0.276 OA
ENDBRANCH  35  36
BRANCH  32  41
ATOM     41  C   UNL     1      -3.391   8.275  27.783  0.00  0.00    +0.414 C 
ATOM     42  O   UNL     1      -3.119   9.425  28.127  0.00  0.00    -0.240 OA
ATOM     43  O   UNL     1      -3.987   7.537  28.568  0.00  0.00    -0.240 OA
ENDBRANCH  32  41
BRANCH  34  44
ATOM     44  O   UNL     1      -6.237   6.448  24.913  0.00  0.00    -0.390 OA
ATOM     45  H   UNL     1      -7.134   6.599  25.221  0.00  0.00    +0.210 HD
ENDBRANCH  34  44
BRANCH  32  46
ATOM     46  O   UNL     1      -1.694   7.112  26.457  0.00  0.00    -0.343 OA
ATOM     47  C   UNL     1      -1.728   5.670  26.308  0.00  0.00    +0.198 C 
ENDBRANCH  32  46
ENDBRANCH  29  30
BRANCH  29  48
ATOM     48  O   UNL     1      -3.188  10.296  22.986  0.00  0.00    -0.387 OA
ATOM     49  H   UNL     1      -2.234  10.382  23.049  0.00  0.00    +0.210 HD
ENDBRANCH  29  48
ENDBRANCH  26  29
ENDBRANCH   1  26
TORSDOF 14
