REMARK VINA RESULT:    -5.990      5.593     12.272
REMARK INTER + INTRA:         -13.457
REMARK INTER:                 -11.303
REMARK INTRA:                  -2.154
REMARK UNBOUND:                -2.389
REMARK  Name = lig_assembled_92.pdb
REMARK  18 active torsions:
REMARK  status: ('A' for Active; 'I' for Inactive)
REMARK    1  A    between atoms: _2  and  _11
REMARK    2  A    between atoms: _3  and  _46
REMARK    3  A    between atoms: _6  and  _25
REMARK    4  A    between atoms: _8  and  _9
REMARK    5  A    between atoms: _8  and  _25
REMARK    6  A    between atoms: _14  and  _46
REMARK    7  A    between atoms: _21  and  _41
REMARK    8  A    between atoms: _23  and  _29
REMARK    9  A    between atoms: _24  and  _28
REMARK   10  A    between atoms: _28  and  _29
REMARK   11  A    between atoms: _31  and  _32
REMARK   12  A    between atoms: _33  and  _34
REMARK   13  A    between atoms: _35  and  _37
REMARK   14  A    between atoms: _37  and  _38
REMARK   15  A    between atoms: _37  and  _39
REMARK   16  A    between atoms: _39  and  _40
REMARK   17  A    between atoms: _39  and  _41
REMARK   18  A    between atoms: _42  and  _44
REMARK                            x       y       z     vdW  Elec       q    Type
REMARK                         _______ _______ _______ _____ _____    ______ ____
ROOT
ATOM      1  C   UNL     1      -4.289  14.383  22.519  0.00  0.00    +0.401 C 
ATOM      2  O   UNL     1      -3.312  15.107  22.317  0.00  0.00    -0.226 OA
ATOM      3  N   UNL     1      -4.325  13.417  23.438  0.00  0.00    -0.279 N 
ATOM      4  H   UNL     1      -5.176  12.882  23.535  0.00  0.00    +0.152 HD
ENDROOT
BRANCH   3   5
ATOM      5  C   UNL     1      -3.196  13.087  24.317  0.00  0.00    +0.141 C 
BRANCH   5   6
ATOM      6  C   UNL     1      -3.412  11.767  25.049  0.00  0.00    +0.163 C 
BRANCH   6   7
ATOM      7  O   UNL     1      -2.220  10.968  24.985  0.00  0.00    -0.388 OA
ATOM      8  H   UNL     1      -2.385  10.113  25.389  0.00  0.00    +0.210 HD
ENDBRANCH   6   7
BRANCH   6   9
ATOM      9  C   UNL     1      -3.808  12.049  26.509  0.00  0.00    +0.175 C 
BRANCH   9  10
ATOM     10  C   UNL     1      -3.464  10.875  27.437  0.00  0.00    +0.176 C 
ATOM     11  O   UNL     1      -4.069   9.674  26.884  0.00  0.00    -0.332 OA
ATOM     12  C   UNL     1      -3.757   8.426  27.586  0.00  0.00    +0.277 C 
ATOM     13  C   UNL     1      -4.111   8.546  29.088  0.00  0.00    +0.110 C 
ATOM     14  C   UNL     1      -3.515   9.825  29.713  0.00  0.00    +0.143 C 
ATOM     15  C   UNL     1      -3.900  11.063  28.902  0.00  0.00    +0.133 C 
BRANCH  15  16
ATOM     16  N   UNL     1      -3.256  12.263  29.457  0.00  0.00    -0.308 N 
ATOM     17  H   UNL     1      -2.248  12.319  29.416  0.00  0.00    +0.149 HD
ATOM     18  C   UNL     1      -3.915  13.284  30.011  0.00  0.00    +0.210 C 
ATOM     19  C   UNL     1      -5.449  13.157  30.082  0.00  0.00    +0.109 C 
ATOM     20  O   UNL     1      -3.350  14.284  30.455  0.00  0.00    -0.276 OA
ENDBRANCH  15  16
BRANCH  12  21
ATOM     21  C   UNL     1      -2.262   8.073  27.435  0.00  0.00    +0.414 C 
ATOM     22  O   UNL     1      -1.721   7.310  28.235  0.00  0.00    -0.240 OA
ATOM     23  O   UNL     1      -1.598   8.550  26.515  0.00  0.00    -0.240 OA
ENDBRANCH  12  21
BRANCH  14  24
ATOM     24  O   UNL     1      -3.990   9.973  31.052  0.00  0.00    -0.390 OA
ATOM     25  H   UNL     1      -4.241   9.114  31.400  0.00  0.00    +0.210 HD
ENDBRANCH  14  24
BRANCH  12  26
ATOM     26  O   UNL     1      -4.568   7.371  27.008  0.00  0.00    -0.343 OA
ATOM     27  C   UNL     1      -4.857   7.525  25.595  0.00  0.00    +0.198 C 
ENDBRANCH  12  26
ENDBRANCH   9  10
BRANCH   9  28
ATOM     28  O   UNL     1      -5.215  12.351  26.592  0.00  0.00    -0.387 OA
ATOM     29  H   UNL     1      -5.363  13.263  26.331  0.00  0.00    +0.210 HD
ENDBRANCH   9  28
ENDBRANCH   6   9
ENDBRANCH   5   6
ENDBRANCH   3   5
BRANCH   1  30
ATOM     30  O   UNL     1      -5.469  14.575  21.734  0.00  0.00    -0.444 OA
BRANCH  30  31
ATOM     31  C   UNL     1      -6.228  13.363  21.708  0.00  0.00    +0.292 C 
BRANCH  31  33
ATOM     32  N   UNL     1      -7.237  12.809  19.513  0.00  0.00    -0.131 NA
ATOM     33  C   UNL     1      -6.174  12.752  20.367  0.00  0.00    +0.121 A 
ATOM     34  C   UNL     1      -5.143  12.077  19.755  0.00  0.00    +0.143 A 
ATOM     35  N   UNL     1      -5.617  11.762  18.503  0.00  0.00    -0.220 N 
ATOM     36  N   UNL     1      -6.893  12.200  18.384  0.00  0.00    -0.060 NA
BRANCH  35  37
ATOM     37  C   UNL     1      -4.933  11.120  17.439  0.00  0.00    +0.067 A 
ATOM     38  C   UNL     1      -4.156  11.869  16.541  0.00  0.00    +0.030 A 
ATOM     39  C   UNL     1      -3.534  11.243  15.462  0.00  0.00    +0.031 A 
ATOM     40  C   UNL     1      -3.674   9.866  15.282  0.00  0.00    +0.109 A 
ATOM     41  C   UNL     1      -4.436   9.105  16.173  0.00  0.00    +0.031 A 
ATOM     42  C   UNL     1      -5.058   9.732  17.259  0.00  0.00    +0.030 A 
BRANCH  40  43
ATOM     43  S   UNL     1      -2.996   9.131  13.817  0.00  0.00    +0.074 S 
ATOM     44  O   UNL     1      -1.827   9.903  13.443  0.00  0.00    -0.150 OA
ATOM     45  O   UNL     1      -2.889   7.706  14.022  0.00  0.00    -0.150 OA
BRANCH  43  46
ATOM     46  N   UNL     1      -4.148   9.480  12.632  0.00  0.00    -0.194 N 
ATOM     47  H   UNL     1      -4.959   9.845  13.124  0.00  0.00    +0.176 HD
ATOM     48  C   UNL     1      -3.648  10.355  11.646  0.00  0.00    +0.177 A 
ATOM     49  S   UNL     1      -3.937  12.039  11.674  0.00  0.00    -0.059 S 
ATOM     50  C   UNL     1      -3.137  12.177  10.161  0.00  0.00    +0.068 A 
ATOM     51  C   UNL     1      -2.781  10.922   9.714  0.00  0.00    +0.120 A 
ATOM     52  N   UNL     1      -3.046   9.880  10.584  0.00  0.00    -0.232 NA
ENDBRANCH  43  46
ENDBRANCH  40  43
ENDBRANCH  35  37
ENDBRANCH  31  33
ENDBRANCH  30  31
ENDBRANCH   1  30
TORSDOF 16
