REMARK VINA RESULT:    -4.522      2.300      5.504
REMARK INTER + INTRA:         -10.786
REMARK INTER:                  -6.686
REMARK INTRA:                  -4.100
REMARK UNBOUND:                -2.299
REMARK  Name = lig_assembled_32.pdb
REMARK  19 active torsions:
REMARK  status: ('A' for Active; 'I' for Inactive)
REMARK    1  A    between atoms: _2  and  _9
REMARK    2  A    between atoms: _4  and  _17
REMARK    3  A    between atoms: _5  and  _10
REMARK    4  A    between atoms: _5  and  _11
REMARK    5  A    between atoms: _6  and  _7
REMARK    6  A    between atoms: _6  and  _17
REMARK    7  A    between atoms: _9  and  _10
REMARK    8  A    between atoms: _13  and  _33
REMARK    9  A    between atoms: _15  and  _21
REMARK   10  A    between atoms: _16  and  _20
REMARK   11  A    between atoms: _20  and  _21
REMARK   12  A    between atoms: _23  and  _24
REMARK   13  A    between atoms: _25  and  _26
REMARK   14  A    between atoms: _27  and  _29
REMARK   15  A    between atoms: _29  and  _30
REMARK   16  A    between atoms: _29  and  _31
REMARK   17  A    between atoms: _31  and  _32
REMARK   18  A    between atoms: _31  and  _33
REMARK   19  A    between atoms: _34  and  _36
REMARK                            x       y       z     vdW  Elec       q    Type
REMARK                         _______ _______ _______ _____ _____    ______ ____
ROOT
ATOM      1  C   UNL     1      -3.110  10.830  25.377  0.00  0.00    +0.163 C 
ENDROOT
BRANCH   1   2
ATOM      2  O   UNL     1      -2.936  10.128  24.136  0.00  0.00    -0.388 OA
ATOM      3  H   UNL     1      -2.474  10.692  23.510  0.00  0.00    +0.210 HD
ENDBRANCH   1   2
BRANCH   1   4
ATOM      4  C   UNL     1      -2.264  10.193  26.493  0.00  0.00    +0.175 C 
BRANCH   4   5
ATOM      5  C   UNL     1      -3.048   9.133  27.280  0.00  0.00    +0.176 C 
ATOM      6  O   UNL     1      -3.200   7.965  26.427  0.00  0.00    -0.332 OA
ATOM      7  C   UNL     1      -3.837   6.802  27.053  0.00  0.00    +0.277 C 
ATOM      8  C   UNL     1      -5.210   7.195  27.651  0.00  0.00    +0.110 C 
ATOM      9  C   UNL     1      -5.105   8.452  28.540  0.00  0.00    +0.143 C 
ATOM     10  C   UNL     1      -4.424   9.598  27.792  0.00  0.00    +0.133 C 
BRANCH  10  11
ATOM     11  N   UNL     1      -4.252  10.761  28.677  0.00  0.00    -0.308 N 
ATOM     12  H   UNL     1      -3.607  10.674  29.450  0.00  0.00    +0.149 HD
ATOM     13  C   UNL     1      -4.892  11.923  28.525  0.00  0.00    +0.210 C 
ATOM     14  C   UNL     1      -5.887  12.015  27.353  0.00  0.00    +0.109 C 
ATOM     15  O   UNL     1      -4.716  12.885  29.274  0.00  0.00    -0.276 OA
ENDBRANCH  10  11
BRANCH   7  16
ATOM     16  C   UNL     1      -2.939   6.217  28.162  0.00  0.00    +0.414 C 
ATOM     17  O   UNL     1      -1.726   6.424  28.152  0.00  0.00    -0.240 OA
ATOM     18  O   UNL     1      -3.427   5.538  29.067  0.00  0.00    -0.240 OA
ENDBRANCH   7  16
BRANCH   7  19
ATOM     19  O   UNL     1      -4.056   5.803  26.024  0.00  0.00    -0.343 OA
ATOM     20  C   UNL     1      -5.350   5.151  26.069  0.00  0.00    +0.198 C 
ENDBRANCH   7  19
BRANCH   9  21
ATOM     21  O   UNL     1      -6.411   8.865  28.946  0.00  0.00    -0.390 OA
ATOM     22  H   UNL     1      -6.405   9.806  29.135  0.00  0.00    +0.210 HD
ENDBRANCH   9  21
ENDBRANCH   4   5
BRANCH   4  23
ATOM     23  O   UNL     1      -1.772  11.212  27.386  0.00  0.00    -0.387 OA
ATOM     24  H   UNL     1      -0.936  11.551  27.057  0.00  0.00    +0.210 HD
ENDBRANCH   4  23
ENDBRANCH   1   4
BRANCH   1  25
ATOM     25  C   UNL     1      -2.714  12.293  25.209  0.00  0.00    +0.141 C 
BRANCH  25  28
ATOM     26  C   UNL     1      -3.645  13.563  23.305  0.00  0.00    +0.401 C 
ATOM     27  O   UNL     1      -4.547  14.079  23.969  0.00  0.00    -0.226 OA
ATOM     28  N   UNL     1      -2.747  12.711  23.802  0.00  0.00    -0.279 N 
ATOM     29  H   UNL     1      -2.051  12.333  23.176  0.00  0.00    +0.152 HD
BRANCH  26  30
ATOM     30  O   UNL     1      -3.539  13.878  21.914  0.00  0.00    -0.444 OA
BRANCH  30  31
ATOM     31  C   UNL     1      -4.673  13.356  21.218  0.00  0.00    +0.292 C 
BRANCH  31  33
ATOM     32  N   UNL     1      -3.480  11.188  21.239  0.00  0.00    -0.131 NA
ATOM     33  C   UNL     1      -4.662  11.882  21.250  0.00  0.00    +0.120 A 
ATOM     34  C   UNL     1      -5.709  10.987  21.288  0.00  0.00    +0.137 A 
ATOM     35  N   UNL     1      -5.098   9.771  21.286  0.00  0.00    -0.251 N 
ATOM     36  N   UNL     1      -3.760   9.892  21.259  0.00  0.00    -0.065 NA
BRANCH  35  37
ATOM     37  C   UNL     1      -5.710   8.461  21.315  0.00  0.00    +0.156 C 
BRANCH  37  38
ATOM     38  C   UNL     1      -6.594   8.272  22.540  0.00  0.00    +0.143 C 
BRANCH  38  39
ATOM     39  C   UNL     1      -5.768   8.345  23.792  0.00  0.00    +0.306 C 
ATOM     40  O   UNL     1      -6.105   8.914  24.818  0.00  0.00    -0.251 OA
BRANCH  39  41
ATOM     41  O   UNL     1      -4.577   7.718  23.669  0.00  0.00    -0.481 OA
ATOM     42  H   UNL     1      -3.816   8.319  23.545  0.00  0.00    +0.295 HD
ENDBRANCH  39  41
ENDBRANCH  38  39
ENDBRANCH  37  38
ENDBRANCH  35  37
ENDBRANCH  31  33
ENDBRANCH  30  31
ENDBRANCH  26  30
ENDBRANCH  25  28
ENDBRANCH   1  25
TORSDOF 17
