REMARK VINA RESULT:    -4.952      5.458      8.205
REMARK INTER + INTRA:         -10.568
REMARK INTER:                  -8.095
REMARK INTRA:                  -2.473
REMARK UNBOUND:                -1.997
REMARK  Name = lig_assembled_57.pdb
REMARK  17 active torsions:
REMARK  status: ('A' for Active; 'I' for Inactive)
REMARK    1  A    between atoms: _2  and  _10
REMARK    2  A    between atoms: _3  and  _13
REMARK    3  A    between atoms: _5  and  _19
REMARK    4  A    between atoms: _7  and  _8
REMARK    5  A    between atoms: _7  and  _19
REMARK    6  A    between atoms: _15  and  _35
REMARK    7  A    between atoms: _17  and  _23
REMARK    8  A    between atoms: _18  and  _22
REMARK    9  A    between atoms: _22  and  _23
REMARK   10  A    between atoms: _25  and  _26
REMARK   11  A    between atoms: _27  and  _28
REMARK   12  A    between atoms: _29  and  _31
REMARK   13  A    between atoms: _31  and  _32
REMARK   14  A    between atoms: _31  and  _33
REMARK   15  A    between atoms: _33  and  _34
REMARK   16  A    between atoms: _33  and  _35
REMARK   17  A    between atoms: _36  and  _38
REMARK                            x       y       z     vdW  Elec       q    Type
REMARK                         _______ _______ _______ _____ _____    ______ ____
ROOT
ATOM      1  C   UNL     1      -6.344   8.989  23.170  0.00  0.00    +0.163 C 
ENDROOT
BRANCH   1   2
ATOM      2  O   UNL     1      -7.163   9.106  24.345  0.00  0.00    -0.388 OA
ATOM      3  H   UNL     1      -6.983   8.371  24.936  0.00  0.00    +0.210 HD
ENDBRANCH   1   2
BRANCH   1   4
ATOM      4  C   UNL     1      -7.095   8.225  22.084  0.00  0.00    +0.141 C 
BRANCH   4   7
ATOM      5  C   UNL     1      -6.323   8.394  19.743  0.00  0.00    +0.401 C 
ATOM      6  O   UNL     1      -5.699   7.331  19.773  0.00  0.00    -0.226 OA
ATOM      7  N   UNL     1      -6.999   8.891  20.780  0.00  0.00    -0.279 N 
ATOM      8  H   UNL     1      -7.472   9.776  20.661  0.00  0.00    +0.152 HD
BRANCH   5   9
ATOM      9  O   UNL     1      -6.333   9.159  18.536  0.00  0.00    -0.444 OA
BRANCH   9  10
ATOM     10  C   UNL     1      -5.801   8.373  17.467  0.00  0.00    +0.292 C 
BRANCH  10  12
ATOM     11  N   UNL     1      -3.774   8.541  16.066  0.00  0.00    -0.131 NA
ATOM     12  C   UNL     1      -4.810   9.157  16.707  0.00  0.00    +0.120 A 
ATOM     13  C   UNL     1      -4.737  10.515  16.481  0.00  0.00    +0.137 A 
ATOM     14  N   UNL     1      -3.687  10.654  15.623  0.00  0.00    -0.248 N 
ATOM     15  N   UNL     1      -3.070   9.468  15.438  0.00  0.00    -0.065 NA
BRANCH  14  16
ATOM     16  C   UNL     1      -3.209  11.810  14.873  0.00  0.00    +0.111 C 
ATOM     17  C   UNL     1      -3.131  11.491  13.372  0.00  0.00    +0.042 C 
ATOM     18  C   UNL     1      -4.530  11.454  12.760  0.00  0.00    +0.086 C 
ATOM     19  N   UNL     1      -5.257  12.718  12.920  0.00  0.00    -0.305 NA
ATOM     20  C   UNL     1      -5.326  13.153  14.315  0.00  0.00    +0.086 C 
ATOM     21  C   UNL     1      -4.763  13.759  12.024  0.00  0.00    +0.104 C 
ATOM     22  C   UNL     1      -3.991  13.119  15.072  0.00  0.00    +0.042 C 
ENDBRANCH  14  16
ENDBRANCH  10  12
ENDBRANCH   9  10
ENDBRANCH   5   9
ENDBRANCH   4   7
ENDBRANCH   1   4
BRANCH   1  23
ATOM     23  C   UNL     1      -5.025   8.266  23.489  0.00  0.00    +0.175 C 
BRANCH  23  24
ATOM     24  C   UNL     1      -4.006   9.194  24.168  0.00  0.00    +0.176 C 
ATOM     25  O   UNL     1      -4.352   9.281  25.578  0.00  0.00    -0.332 OA
ATOM     26  C   UNL     1      -3.421  10.047  26.412  0.00  0.00    +0.277 C 
ATOM     27  C   UNL     1      -3.219  11.469  25.833  0.00  0.00    +0.110 C 
ATOM     28  C   UNL     1      -2.881  11.428  24.328  0.00  0.00    +0.143 C 
ATOM     29  C   UNL     1      -3.912  10.604  23.556  0.00  0.00    +0.133 C 
BRANCH  29  30
ATOM     30  N   UNL     1      -3.532  10.500  22.138  0.00  0.00    -0.308 N 
ATOM     31  H   UNL     1      -2.740   9.918  21.904  0.00  0.00    +0.149 HD
ATOM     32  C   UNL     1      -4.164  11.125  21.142  0.00  0.00    +0.210 C 
ATOM     33  C   UNL     1      -5.351  12.025  21.535  0.00  0.00    +0.109 C 
ATOM     34  O   UNL     1      -3.833  11.008  19.962  0.00  0.00    -0.276 OA
ENDBRANCH  29  30
BRANCH  26  35
ATOM     35  C   UNL     1      -2.057   9.331  26.508  0.00  0.00    +0.414 C 
ATOM     36  O   UNL     1      -1.015   9.984  26.549  0.00  0.00    -0.240 OA
ATOM     37  O   UNL     1      -1.999   8.101  26.545  0.00  0.00    -0.240 OA
ENDBRANCH  26  35
BRANCH  28  38
ATOM     38  O   UNL     1      -2.853  12.757  23.805  0.00  0.00    -0.390 OA
ATOM     39  H   UNL     1      -3.736  13.010  23.526  0.00  0.00    +0.210 HD
ENDBRANCH  28  38
BRANCH  26  40
ATOM     40  O   UNL     1      -4.002  10.170  27.736  0.00  0.00    -0.343 OA
ATOM     41  C   UNL     1      -3.667  11.392  28.440  0.00  0.00    +0.198 C 
ENDBRANCH  26  40
ENDBRANCH  23  24
BRANCH  23  42
ATOM     42  O   UNL     1      -4.462   7.706  22.285  0.00  0.00    -0.387 OA
ATOM     43  H   UNL     1      -3.505   7.682  22.361  0.00  0.00    +0.210 HD
ENDBRANCH  23  42
ENDBRANCH   1  23
TORSDOF 14
