REMARK VINA RESULT:    -5.119      2.597      8.239
REMARK INTER + INTRA:         -13.118
REMARK INTER:                  -9.948
REMARK INTRA:                  -3.170
REMARK UNBOUND:                -3.060
REMARK  Name = lig_assembled_37.pdb
REMARK  21 active torsions:
REMARK  status: ('A' for Active; 'I' for Inactive)
REMARK    1  A    between atoms: _2  and  _9
REMARK    2  A    between atoms: _4  and  _24
REMARK    3  A    between atoms: _6  and  _7
REMARK    4  A    between atoms: _6  and  _24
REMARK    5  A    between atoms: _9  and  _10
REMARK    6  A    between atoms: _9  and  _11
REMARK    7  A    between atoms: _11  and  _18
REMARK    8  A    between atoms: _12  and  _13
REMARK    9  A    between atoms: _12  and  _18
REMARK   10  A    between atoms: _20  and  _40
REMARK   11  A    between atoms: _22  and  _28
REMARK   12  A    between atoms: _23  and  _27
REMARK   13  A    between atoms: _27  and  _28
REMARK   14  A    between atoms: _30  and  _31
REMARK   15  A    between atoms: _32  and  _33
REMARK   16  A    between atoms: _34  and  _36
REMARK   17  A    between atoms: _36  and  _37
REMARK   18  A    between atoms: _36  and  _38
REMARK   19  A    between atoms: _38  and  _39
REMARK   20  A    between atoms: _38  and  _40
REMARK   21  A    between atoms: _41  and  _43
REMARK                            x       y       z     vdW  Elec       q    Type
REMARK                         _______ _______ _______ _____ _____    ______ ____
ROOT
ATOM      1  C   UNL     1      -1.917  10.225  26.977  0.00  0.00    +0.141 C 
ENDROOT
BRANCH   1   4
ATOM      2  C   UNL     1      -1.805   8.077  28.194  0.00  0.00    +0.401 C 
ATOM      3  O   UNL     1      -2.089   7.395  27.207  0.00  0.00    -0.226 OA
ATOM      4  N   UNL     1      -1.709   9.407  28.179  0.00  0.00    -0.279 N 
ATOM      5  H   UNL     1      -1.479   9.879  29.042  0.00  0.00    +0.152 HD
BRANCH   2   6
ATOM      6  O   UNL     1      -1.563   7.425  29.443  0.00  0.00    -0.444 OA
BRANCH   6   7
ATOM      7  C   UNL     1      -2.804   7.225  30.126  0.00  0.00    +0.292 C 
BRANCH   7   9
ATOM      8  N   UNL     1      -4.471   9.045  29.894  0.00  0.00    -0.131 NA
ATOM      9  C   UNL     1      -3.381   8.519  30.536  0.00  0.00    +0.120 A 
ATOM     10  C   UNL     1      -2.993   9.377  31.540  0.00  0.00    +0.138 A 
ATOM     11  N   UNL     1      -3.866  10.420  31.442  0.00  0.00    -0.238 N 
ATOM     12  N   UNL     1      -4.765  10.206  30.462  0.00  0.00    -0.065 NA
BRANCH  11  13
ATOM     13  C   UNL     1      -3.971  11.611  32.261  0.00  0.00    +0.214 C 
ATOM     14  C   UNL     1      -3.768  11.291  33.742  0.00  0.00    +0.045 C 
BRANCH  13  15
ATOM     15  C   UNL     1      -2.987  12.670  31.815  0.00  0.00    +0.332 C 
ATOM     16  O   UNL     1      -1.899  12.862  32.346  0.00  0.00    -0.248 OA
BRANCH  15  17
ATOM     17  O   UNL     1      -3.471  13.374  30.757  0.00  0.00    -0.458 OA
BRANCH  17  18
ATOM     18  C   UNL     1      -4.865  13.716  30.810  0.00  0.00    +0.267 C 
BRANCH  18  19
ATOM     19  C   UNL     1      -5.052  15.168  30.455  0.00  0.00    -0.010 A 
ATOM     20  C   UNL     1      -4.260  16.155  31.058  0.00  0.00    +0.007 A 
ATOM     21  C   UNL     1      -4.414  17.498  30.709  0.00  0.00    +0.000 A 
ATOM     22  C   UNL     1      -5.362  17.868  29.757  0.00  0.00    +0.000 A 
ATOM     23  C   UNL     1      -6.160  16.898  29.156  0.00  0.00    +0.000 A 
ATOM     24  C   UNL     1      -6.009  15.554  29.505  0.00  0.00    +0.007 A 
ENDBRANCH  18  19
ENDBRANCH  17  18
ENDBRANCH  15  17
ENDBRANCH  13  15
ENDBRANCH  11  13
ENDBRANCH   7   9
ENDBRANCH   6   7
ENDBRANCH   2   6
ENDBRANCH   1   4
BRANCH   1  25
ATOM     25  C   UNL     1      -3.217  11.019  27.049  0.00  0.00    +0.163 C 
BRANCH  25  26
ATOM     26  O   UNL     1      -3.300  11.714  28.304  0.00  0.00    -0.388 OA
ATOM     27  H   UNL     1      -4.107  12.235  28.330  0.00  0.00    +0.210 HD
ENDBRANCH  25  26
BRANCH  25  28
ATOM     28  C   UNL     1      -3.283  12.005  25.869  0.00  0.00    +0.175 C 
BRANCH  28  29
ATOM     29  C   UNL     1      -4.166  11.481  24.727  0.00  0.00    +0.176 C 
ATOM     30  O   UNL     1      -3.421  11.622  23.486  0.00  0.00    -0.332 OA
ATOM     31  C   UNL     1      -4.070  11.072  22.292  0.00  0.00    +0.277 C 
ATOM     32  C   UNL     1      -5.488  11.671  22.122  0.00  0.00    +0.110 C 
ATOM     33  C   UNL     1      -6.307  11.573  23.426  0.00  0.00    +0.143 C 
ATOM     34  C   UNL     1      -5.537  12.171  24.604  0.00  0.00    +0.133 C 
BRANCH  34  35
ATOM     35  N   UNL     1      -6.290  11.994  25.856  0.00  0.00    -0.308 N 
ATOM     36  H   UNL     1      -6.452  11.050  26.179  0.00  0.00    +0.149 HD
ATOM     37  C   UNL     1      -6.773  12.998  26.592  0.00  0.00    +0.210 C 
ATOM     38  C   UNL     1      -6.532  14.422  26.059  0.00  0.00    +0.109 C 
ATOM     39  O   UNL     1      -7.388  12.820  27.644  0.00  0.00    -0.276 OA
ENDBRANCH  34  35
BRANCH  31  40
ATOM     40  C   UNL     1      -4.166   9.535  22.380  0.00  0.00    +0.414 C 
ATOM     41  O   UNL     1      -4.793   8.903  21.530  0.00  0.00    -0.240 OA
ATOM     42  O   UNL     1      -3.618   8.927  23.300  0.00  0.00    -0.240 OA
ENDBRANCH  31  40
BRANCH  31  43
ATOM     43  O   UNL     1      -3.275  11.446  21.137  0.00  0.00    -0.343 OA
ATOM     44  C   UNL     1      -4.011  12.100  20.072  0.00  0.00    +0.198 C 
ENDBRANCH  31  43
BRANCH  33  45
ATOM     45  O   UNL     1      -7.545  12.268  23.271  0.00  0.00    -0.390 OA
ATOM     46  H   UNL     1      -7.555  13.036  23.848  0.00  0.00    +0.210 HD
ENDBRANCH  33  45
ENDBRANCH  28  29
BRANCH  28  47
ATOM     47  O   UNL     1      -1.955  12.286  25.382  0.00  0.00    -0.387 OA
ATOM     48  H   UNL     1      -1.988  12.446  24.436  0.00  0.00    +0.210 HD
ENDBRANCH  28  47
ENDBRANCH  25  28
ENDBRANCH   1  25
TORSDOF 18
