REMARK VINA RESULT:    -4.798      4.812      8.230
REMARK INTER + INTRA:         -12.486
REMARK INTER:                  -9.781
REMARK INTRA:                  -2.705
REMARK UNBOUND:                -3.060
REMARK  Name = lig_assembled_37.pdb
REMARK  21 active torsions:
REMARK  status: ('A' for Active; 'I' for Inactive)
REMARK    1  A    between atoms: _2  and  _9
REMARK    2  A    between atoms: _4  and  _24
REMARK    3  A    between atoms: _6  and  _7
REMARK    4  A    between atoms: _6  and  _24
REMARK    5  A    between atoms: _9  and  _10
REMARK    6  A    between atoms: _9  and  _11
REMARK    7  A    between atoms: _11  and  _18
REMARK    8  A    between atoms: _12  and  _13
REMARK    9  A    between atoms: _12  and  _18
REMARK   10  A    between atoms: _20  and  _40
REMARK   11  A    between atoms: _22  and  _28
REMARK   12  A    between atoms: _23  and  _27
REMARK   13  A    between atoms: _27  and  _28
REMARK   14  A    between atoms: _30  and  _31
REMARK   15  A    between atoms: _32  and  _33
REMARK   16  A    between atoms: _34  and  _36
REMARK   17  A    between atoms: _36  and  _37
REMARK   18  A    between atoms: _36  and  _38
REMARK   19  A    between atoms: _38  and  _39
REMARK   20  A    between atoms: _38  and  _40
REMARK   21  A    between atoms: _41  and  _43
REMARK                            x       y       z     vdW  Elec       q    Type
REMARK                         _______ _______ _______ _____ _____    ______ ____
ROOT
ATOM      1  C   UNL     1      -7.486   8.731  22.273  0.00  0.00    +0.141 C 
ENDROOT
BRANCH   1   4
ATOM      2  C   UNL     1      -7.449   8.396  19.826  0.00  0.00    +0.401 C 
ATOM      3  O   UNL     1      -7.547   7.169  19.897  0.00  0.00    -0.226 OA
ATOM      4  N   UNL     1      -7.406   9.204  20.886  0.00  0.00    -0.279 N 
ATOM      5  H   UNL     1      -7.314  10.197  20.726  0.00  0.00    +0.152 HD
BRANCH   2   6
ATOM      6  O   UNL     1      -7.369   9.012  18.538  0.00  0.00    -0.444 OA
BRANCH   6   7
ATOM      7  C   UNL     1      -7.043  10.396  18.690  0.00  0.00    +0.292 C 
BRANCH   7   9
ATOM      8  N   UNL     1      -5.851  12.098  17.337  0.00  0.00    -0.131 NA
ATOM      9  C   UNL     1      -6.006  10.791  17.717  0.00  0.00    +0.120 A 
ATOM     10  C   UNL     1      -5.076  10.018  17.060  0.00  0.00    +0.138 A 
ATOM     11  N   UNL     1      -4.402  10.905  16.274  0.00  0.00    -0.238 N 
ATOM     12  N   UNL     1      -4.860  12.158  16.458  0.00  0.00    -0.065 NA
BRANCH  11  13
ATOM     13  C   UNL     1      -3.283  10.677  15.381  0.00  0.00    +0.214 C 
ATOM     14  C   UNL     1      -2.873   9.205  15.364  0.00  0.00    +0.045 C 
BRANCH  13  15
ATOM     15  C   UNL     1      -3.598  11.149  13.979  0.00  0.00    +0.332 C 
ATOM     16  O   UNL     1      -4.520  10.713  13.299  0.00  0.00    -0.248 OA
BRANCH  15  17
ATOM     17  O   UNL     1      -2.725  12.112  13.578  0.00  0.00    -0.458 OA
BRANCH  17  18
ATOM     18  C   UNL     1      -3.276  13.174  12.785  0.00  0.00    +0.267 C 
BRANCH  18  19
ATOM     19  C   UNL     1      -2.277  14.295  12.658  0.00  0.00    -0.010 A 
ATOM     20  C   UNL     1      -2.689  15.630  12.764  0.00  0.00    +0.007 A 
ATOM     21  C   UNL     1      -1.760  16.668  12.675  0.00  0.00    +0.000 A 
ATOM     22  C   UNL     1      -0.411  16.382  12.476  0.00  0.00    +0.000 A 
ATOM     23  C   UNL     1       0.010  15.059  12.362  0.00  0.00    +0.000 A 
ATOM     24  C   UNL     1      -0.918  14.020  12.449  0.00  0.00    +0.007 A 
ENDBRANCH  18  19
ENDBRANCH  17  18
ENDBRANCH  15  17
ENDBRANCH  13  15
ENDBRANCH  11  13
ENDBRANCH   7   9
ENDBRANCH   6   7
ENDBRANCH   2   6
ENDBRANCH   1   4
BRANCH   1  25
ATOM     25  C   UNL     1      -6.516   9.476  23.185  0.00  0.00    +0.163 C 
BRANCH  25  26
ATOM     26  O   UNL     1      -7.118   9.692  24.472  0.00  0.00    -0.388 OA
ATOM     27  H   UNL     1      -7.788   9.022  24.629  0.00  0.00    +0.210 HD
ENDBRANCH  25  26
BRANCH  25  28
ATOM     28  C   UNL     1      -5.212   8.671  23.316  0.00  0.00    +0.175 C 
BRANCH  28  29
ATOM     29  C   UNL     1      -4.122   9.454  24.063  0.00  0.00    +0.176 C 
ATOM     30  O   UNL     1      -4.467   9.462  25.476  0.00  0.00    -0.332 OA
ATOM     31  C   UNL     1      -3.479  10.078  26.366  0.00  0.00    +0.277 C 
ATOM     32  C   UNL     1      -3.154  11.518  25.899  0.00  0.00    +0.110 C 
ATOM     33  C   UNL     1      -2.811  11.565  24.395  0.00  0.00    +0.143 C 
ATOM     34  C   UNL     1      -3.904  10.894  23.562  0.00  0.00    +0.133 C 
BRANCH  34  35
ATOM     35  N   UNL     1      -3.526  10.867  22.141  0.00  0.00    -0.308 N 
ATOM     36  H   UNL     1      -2.773  10.253  21.864  0.00  0.00    +0.149 HD
ATOM     37  C   UNL     1      -4.113  11.602  21.192  0.00  0.00    +0.210 C 
ATOM     38  C   UNL     1      -5.240  12.547  21.649  0.00  0.00    +0.109 C 
ATOM     39  O   UNL     1      -3.785  11.548  20.006  0.00  0.00    -0.276 OA
ENDBRANCH  34  35
BRANCH  31  40
ATOM     40  C   UNL     1      -2.182   9.243  26.406  0.00  0.00    +0.414 C 
ATOM     41  O   UNL     1      -2.236   8.014  26.399  0.00  0.00    -0.240 OA
ATOM     42  O   UNL     1      -1.084   9.799  26.444  0.00  0.00    -0.240 OA
ENDBRANCH  31  40
BRANCH  31  43
ATOM     43  O   UNL     1      -4.055  10.148  27.696  0.00  0.00    -0.343 OA
ATOM     44  C   UNL     1      -4.227  11.490  28.219  0.00  0.00    +0.198 C 
ENDBRANCH  31  43
BRANCH  33  45
ATOM     45  O   UNL     1      -2.667  12.922  23.976  0.00  0.00    -0.390 OA
ATOM     46  H   UNL     1      -2.895  12.997  23.046  0.00  0.00    +0.210 HD
ENDBRANCH  33  45
ENDBRANCH  28  29
BRANCH  28  47
ATOM     47  O   UNL     1      -4.737   8.280  22.012  0.00  0.00    -0.387 OA
ATOM     48  H   UNL     1      -4.683   9.054  21.445  0.00  0.00    +0.210 HD
ENDBRANCH  28  47
ENDBRANCH  25  28
ENDBRANCH   1  25
TORSDOF 18
