REMARK VINA RESULT:    -4.888      2.190      4.508
REMARK INTER + INTRA:         -12.140
REMARK INTER:                  -9.860
REMARK INTRA:                  -2.280
REMARK UNBOUND:                -3.108
REMARK  Name = lig_assembled_58.pdb
REMARK  18 active torsions:
REMARK  status: ('A' for Active; 'I' for Inactive)
REMARK    1  A    between atoms: _2  and  _9
REMARK    2  A    between atoms: _4  and  _25
REMARK    3  A    between atoms: _6  and  _7
REMARK    4  A    between atoms: _6  and  _25
REMARK    5  A    between atoms: _9  and  _10
REMARK    6  A    between atoms: _9  and  _16
REMARK    7  A    between atoms: _21  and  _41
REMARK    8  A    between atoms: _23  and  _29
REMARK    9  A    between atoms: _24  and  _28
REMARK   10  A    between atoms: _28  and  _29
REMARK   11  A    between atoms: _31  and  _32
REMARK   12  A    between atoms: _33  and  _34
REMARK   13  A    between atoms: _35  and  _37
REMARK   14  A    between atoms: _37  and  _38
REMARK   15  A    between atoms: _37  and  _39
REMARK   16  A    between atoms: _39  and  _40
REMARK   17  A    between atoms: _39  and  _41
REMARK   18  A    between atoms: _42  and  _44
REMARK                            x       y       z     vdW  Elec       q    Type
REMARK                         _______ _______ _______ _____ _____    ______ ____
ROOT
ATOM      1  C   UNL     1      -8.338  11.532  16.320  0.00  0.00    +0.141 C 
ENDROOT
BRANCH   1   4
ATOM      2  C   UNL     1      -6.578  10.927  17.945  0.00  0.00    +0.401 C 
ATOM      3  O   UNL     1      -6.260  12.096  18.178  0.00  0.00    -0.226 OA
ATOM      4  N   UNL     1      -7.534  10.572  17.086  0.00  0.00    -0.279 N 
ATOM      5  H   UNL     1      -7.715   9.587  16.955  0.00  0.00    +0.152 HD
BRANCH   2   6
ATOM      6  O   UNL     1      -5.889   9.872  18.622  0.00  0.00    -0.444 OA
BRANCH   6   7
ATOM      7  C   UNL     1      -6.237   9.887  20.009  0.00  0.00    +0.292 C 
BRANCH   7   9
ATOM      8  N   UNL     1      -3.865  10.404  20.542  0.00  0.00    -0.131 NA
ATOM      9  C   UNL     1      -5.200  10.587  20.788  0.00  0.00    +0.120 A 
ATOM     10  C   UNL     1      -5.345  11.509  21.799  0.00  0.00    +0.138 A 
ATOM     11  N   UNL     1      -4.075  11.968  22.022  0.00  0.00    -0.240 N 
ATOM     12  N   UNL     1      -3.182  11.238  21.316  0.00  0.00    -0.064 NA
BRANCH  11  13
ATOM     13  C   UNL     1      -3.622  13.103  22.847  0.00  0.00    +0.169 C 
BRANCH  13  14
ATOM     14  C   UNL     1      -4.372  14.380  22.439  0.00  0.00    -0.019 A 
ATOM     15  C   UNL     1      -3.670  15.584  22.260  0.00  0.00    +0.006 A 
ATOM     16  C   UNL     1      -4.350  16.764  21.945  0.00  0.00    +0.000 A 
ATOM     17  C   UNL     1      -5.736  16.758  21.791  0.00  0.00    +0.000 A 
ATOM     18  C   UNL     1      -6.448  15.577  21.966  0.00  0.00    +0.000 A 
ATOM     19  C   UNL     1      -5.774  14.403  22.298  0.00  0.00    +0.006 A 
ENDBRANCH  13  14
BRANCH  13  20
ATOM     20  C   UNL     1      -3.646  12.791  24.350  0.00  0.00    -0.019 A 
ATOM     21  C   UNL     1      -4.714  13.210  25.164  0.00  0.00    +0.006 A 
ATOM     22  C   UNL     1      -4.729  12.925  26.532  0.00  0.00    +0.000 A 
ATOM     23  C   UNL     1      -3.692  12.198  27.108  0.00  0.00    +0.000 A 
ATOM     24  C   UNL     1      -2.655  11.727  26.313  0.00  0.00    +0.000 A 
ATOM     25  C   UNL     1      -2.642  12.004  24.947  0.00  0.00    +0.006 A 
ENDBRANCH  13  20
ENDBRANCH  11  13
ENDBRANCH   7   9
ENDBRANCH   6   7
ENDBRANCH   2   6
ENDBRANCH   1   4
BRANCH   1  26
ATOM     26  C   UNL     1      -7.623  11.990  15.053  0.00  0.00    +0.163 C 
BRANCH  26  27
ATOM     27  O   UNL     1      -6.871  13.186  15.318  0.00  0.00    -0.388 OA
ATOM     28  H   UNL     1      -6.647  13.614  14.488  0.00  0.00    +0.210 HD
ENDBRANCH  26  27
BRANCH  26  29
ATOM     29  C   UNL     1      -6.706  10.864  14.546  0.00  0.00    +0.175 C 
BRANCH  29  30
ATOM     30  C   UNL     1      -5.344  11.397  14.075  0.00  0.00    +0.176 C 
ATOM     31  O   UNL     1      -5.528  11.997  12.763  0.00  0.00    -0.332 OA
ATOM     32  C   UNL     1      -4.348  12.656  12.196  0.00  0.00    +0.277 C 
ATOM     33  C   UNL     1      -3.147  11.680  12.161  0.00  0.00    +0.110 C 
ATOM     34  C   UNL     1      -2.932  10.993  13.526  0.00  0.00    +0.143 C 
ATOM     35  C   UNL     1      -4.223  10.342  14.023  0.00  0.00    +0.133 C 
BRANCH  35  36
ATOM     36  N   UNL     1      -4.028   9.766  15.363  0.00  0.00    -0.308 N 
ATOM     37  H   UNL     1      -3.835  10.401  16.125  0.00  0.00    +0.149 HD
ATOM     38  C   UNL     1      -4.088   8.460  15.637  0.00  0.00    +0.210 C 
ATOM     39  C   UNL     1      -4.358   7.518  14.449  0.00  0.00    +0.109 C 
ATOM     40  O   UNL     1      -3.935   8.008  16.772  0.00  0.00    -0.276 OA
ENDBRANCH  35  36
BRANCH  32  41
ATOM     41  C   UNL     1      -3.972  13.906  13.019  0.00  0.00    +0.414 C 
ATOM     42  O   UNL     1      -4.852  14.613  13.510  0.00  0.00    -0.240 OA
ATOM     43  O   UNL     1      -2.791  14.208  13.192  0.00  0.00    -0.240 OA
ENDBRANCH  32  41
BRANCH  34  44
ATOM     44  O   UNL     1      -1.917   9.994  13.408  0.00  0.00    -0.390 OA
ATOM     45  H   UNL     1      -2.070   9.473  12.616  0.00  0.00    +0.210 HD
ENDBRANCH  34  44
BRANCH  32  46
ATOM     46  O   UNL     1      -4.662  13.045  10.834  0.00  0.00    -0.343 OA
ATOM     47  C   UNL     1      -6.071  13.252  10.566  0.00  0.00    +0.198 C 
ENDBRANCH  32  46
ENDBRANCH  29  30
BRANCH  29  48
ATOM     48  O   UNL     1      -7.352  10.140  13.480  0.00  0.00    -0.387 OA
ATOM     49  H   UNL     1      -7.765  10.761  12.875  0.00  0.00    +0.210 HD
ENDBRANCH  29  48
ENDBRANCH  26  29
ENDBRANCH   1  26
TORSDOF 16
