REMARK VINA RESULT:    -5.238      0.000      0.000
REMARK INTER + INTRA:         -11.606
REMARK INTER:                  -8.573
REMARK INTRA:                  -3.033
REMARK UNBOUND:                -2.233
REMARK  Name = lig_assembled_61.pdb
REMARK  17 active torsions:
REMARK  status: ('A' for Active; 'I' for Inactive)
REMARK    1  A    between atoms: _2  and  _9
REMARK    2  A    between atoms: _4  and  _17
REMARK    3  A    between atoms: _6  and  _7
REMARK    4  A    between atoms: _6  and  _17
REMARK    5  A    between atoms: _9  and  _10
REMARK    6  A    between atoms: _13  and  _33
REMARK    7  A    between atoms: _15  and  _21
REMARK    8  A    between atoms: _16  and  _20
REMARK    9  A    between atoms: _20  and  _21
REMARK   10  A    between atoms: _23  and  _24
REMARK   11  A    between atoms: _25  and  _26
REMARK   12  A    between atoms: _27  and  _29
REMARK   13  A    between atoms: _29  and  _30
REMARK   14  A    between atoms: _29  and  _31
REMARK   15  A    between atoms: _31  and  _32
REMARK   16  A    between atoms: _31  and  _33
REMARK   17  A    between atoms: _34  and  _36
REMARK                            x       y       z     vdW  Elec       q    Type
REMARK                         _______ _______ _______ _____ _____    ______ ____
ROOT
ATOM      1  C   UNL     1      -3.293  10.211  31.053  0.00  0.00    +0.163 C 
ENDROOT
BRANCH   1   2
ATOM      2  O   UNL     1      -2.077  10.867  31.447  0.00  0.00    -0.388 OA
ATOM      3  H   UNL     1      -2.170  11.815  31.327  0.00  0.00    +0.210 HD
ENDBRANCH   1   2
BRANCH   1   4
ATOM      4  C   UNL     1      -2.982   8.826  30.494  0.00  0.00    +0.141 C 
BRANCH   4   7
ATOM      5  C   UNL     1      -2.358   8.346  28.152  0.00  0.00    +0.401 C 
ATOM      6  O   UNL     1      -1.201   8.021  28.428  0.00  0.00    -0.226 OA
ATOM      7  N   UNL     1      -3.256   8.742  29.055  0.00  0.00    -0.279 N 
ATOM      8  H   UNL     1      -4.178   8.998  28.729  0.00  0.00    +0.152 HD
BRANCH   5   9
ATOM      9  O   UNL     1      -2.782   8.309  26.787  0.00  0.00    -0.444 OA
BRANCH   9  10
ATOM     10  C   UNL     1      -3.789   9.302  26.573  0.00  0.00    +0.292 C 
BRANCH  10  12
ATOM     11  N   UNL     1      -2.464  11.255  25.828  0.00  0.00    -0.131 NA
ATOM     12  C   UNL     1      -3.358  10.257  25.536  0.00  0.00    +0.120 A 
ATOM     13  C   UNL     1      -3.715  10.345  24.208  0.00  0.00    +0.137 A 
ATOM     14  N   UNL     1      -3.051  11.450  23.763  0.00  0.00    -0.247 N 
ATOM     15  N   UNL     1      -2.268  11.970  24.728  0.00  0.00    -0.065 NA
BRANCH  14  16
ATOM     16  C   UNL     1      -3.080  12.044  22.439  0.00  0.00    +0.180 C 
BRANCH  16  17
ATOM     17  C   UNL     1      -3.953  13.267  22.395  0.00  0.00    -0.019 A 
ATOM     18  C   UNL     1      -3.469  14.608  22.217  0.00  0.00    +0.013 A 
ATOM     19  C   UNL     1      -4.475  15.548  22.253  0.00  0.00    +0.045 A 
ATOM     20  S   UNL     1      -6.009  14.836  22.487  0.00  0.00    -0.105 S 
ATOM     21  C   UNL     1      -5.329  13.269  22.553  0.00  0.00    +0.050 A 
ENDBRANCH  16  17
ENDBRANCH  14  16
ENDBRANCH  10  12
ENDBRANCH   9  10
ENDBRANCH   5   9
ENDBRANCH   4   7
ENDBRANCH   1   4
BRANCH   1  22
ATOM     22  C   UNL     1      -4.044  11.035  29.993  0.00  0.00    +0.175 C 
BRANCH  22  23
ATOM     23  C   UNL     1      -4.143  12.519  30.378  0.00  0.00    +0.176 C 
ATOM     24  O   UNL     1      -4.391  12.593  31.809  0.00  0.00    -0.332 OA
ATOM     25  C   UNL     1      -4.411  13.944  32.379  0.00  0.00    +0.277 C 
ATOM     26  C   UNL     1      -5.428  14.835  31.624  0.00  0.00    +0.110 C 
ATOM     27  C   UNL     1      -5.223  14.763  30.096  0.00  0.00    +0.143 C 
ATOM     28  C   UNL     1      -5.216  13.313  29.611  0.00  0.00    +0.133 C 
BRANCH  28  29
ATOM     29  N   UNL     1      -4.934  13.254  28.168  0.00  0.00    -0.308 N 
ATOM     30  H   UNL     1      -4.001  13.489  27.860  0.00  0.00    +0.149 HD
ATOM     31  C   UNL     1      -5.831  12.910  27.240  0.00  0.00    +0.210 C 
ATOM     32  C   UNL     1      -7.251  12.584  27.739  0.00  0.00    +0.109 C 
ATOM     33  O   UNL     1      -5.562  12.855  26.039  0.00  0.00    -0.276 OA
ENDBRANCH  28  29
BRANCH  25  34
ATOM     34  C   UNL     1      -3.011  14.587  32.310  0.00  0.00    +0.414 C 
ATOM     35  O   UNL     1      -2.882  15.806  32.416  0.00  0.00    -0.240 OA
ATOM     36  O   UNL     1      -2.010  13.888  32.149  0.00  0.00    -0.240 OA
ENDBRANCH  25  34
BRANCH  25  37
ATOM     37  O   UNL     1      -4.833  13.840  33.763  0.00  0.00    -0.343 OA
ATOM     38  C   UNL     1      -4.924  12.487  34.276  0.00  0.00    +0.198 C 
ENDBRANCH  25  37
BRANCH  27  39
ATOM     39  O   UNL     1      -6.271  15.475  29.436  0.00  0.00    -0.390 OA
ATOM     40  H   UNL     1      -6.197  15.347  28.488  0.00  0.00    +0.210 HD
ENDBRANCH  27  39
ENDBRANCH  22  23
BRANCH  22  41
ATOM     41  O   UNL     1      -5.360  10.489  29.779  0.00  0.00    -0.387 OA
ATOM     42  H   UNL     1      -6.019  11.093  30.129  0.00  0.00    +0.210 HD
ENDBRANCH  22  41
ENDBRANCH   1  22
TORSDOF 15
