REMARK VINA RESULT:    -4.520      3.654      8.733
REMARK INTER + INTRA:         -11.803
REMARK INTER:                  -8.670
REMARK INTRA:                  -3.133
REMARK UNBOUND:                -3.320
REMARK  Name = lig_assembled_16.pdb
REMARK  19 active torsions:
REMARK  status: ('A' for Active; 'I' for Inactive)
REMARK    1  A    between atoms: _2  and  _9
REMARK    2  A    between atoms: _4  and  _22
REMARK    3  A    between atoms: _6  and  _7
REMARK    4  A    between atoms: _6  and  _22
REMARK    5  A    between atoms: _9  and  _10
REMARK    6  A    between atoms: _13  and  _14
REMARK    7  A    between atoms: _14  and  _16
REMARK    8  A    between atoms: _18  and  _38
REMARK    9  A    between atoms: _20  and  _26
REMARK   10  A    between atoms: _21  and  _25
REMARK   11  A    between atoms: _25  and  _26
REMARK   12  A    between atoms: _28  and  _29
REMARK   13  A    between atoms: _30  and  _31
REMARK   14  A    between atoms: _32  and  _34
REMARK   15  A    between atoms: _34  and  _35
REMARK   16  A    between atoms: _34  and  _36
REMARK   17  A    between atoms: _36  and  _37
REMARK   18  A    between atoms: _36  and  _38
REMARK   19  A    between atoms: _39  and  _41
REMARK                            x       y       z     vdW  Elec       q    Type
REMARK                         _______ _______ _______ _____ _____    ______ ____
ROOT
ATOM      1  C   UNL     1      -4.123  10.515  31.136  0.00  0.00    +0.163 C 
ENDROOT
BRANCH   1   2
ATOM      2  O   UNL     1      -5.044  11.246  31.962  0.00  0.00    -0.388 OA
ATOM      3  H   UNL     1      -4.638  12.070  32.244  0.00  0.00    +0.210 HD
ENDBRANCH   1   2
BRANCH   1   4
ATOM      4  C   UNL     1      -4.803  10.043  29.839  0.00  0.00    +0.175 C 
BRANCH   4   5
ATOM      5  C   UNL     1      -3.793   9.475  28.831  0.00  0.00    +0.176 C 
ATOM      6  O   UNL     1      -4.291   9.756  27.493  0.00  0.00    -0.332 OA
ATOM      7  C   UNL     1      -3.399   9.377  26.393  0.00  0.00    +0.277 C 
ATOM      8  C   UNL     1      -3.008   7.883  26.503  0.00  0.00    +0.110 C 
ATOM      9  C   UNL     1      -2.503   7.529  27.918  0.00  0.00    +0.143 C 
ATOM     10  C   UNL     1      -3.506   7.970  28.985  0.00  0.00    +0.133 C 
BRANCH  10  11
ATOM     11  N   UNL     1      -2.975   7.707  30.332  0.00  0.00    -0.308 N 
ATOM     12  H   UNL     1      -2.143   8.205  30.616  0.00  0.00    +0.149 HD
ATOM     13  C   UNL     1      -3.520   6.853  31.202  0.00  0.00    +0.210 C 
ATOM     14  C   UNL     1      -4.772   6.091  30.729  0.00  0.00    +0.109 C 
ATOM     15  O   UNL     1      -3.061   6.664  32.329  0.00  0.00    -0.276 OA
ENDBRANCH  10  11
BRANCH   7  16
ATOM     16  C   UNL     1      -2.124  10.245  26.399  0.00  0.00    +0.414 C 
ATOM     17  O   UNL     1      -2.209  11.472  26.404  0.00  0.00    -0.240 OA
ATOM     18  O   UNL     1      -1.010   9.719  26.398  0.00  0.00    -0.240 OA
ENDBRANCH   7  16
BRANCH   7  19
ATOM     19  O   UNL     1      -4.117   9.571  25.147  0.00  0.00    -0.343 OA
ATOM     20  C   UNL     1      -5.509   9.165  25.172  0.00  0.00    +0.198 C 
ENDBRANCH   7  19
BRANCH   9  21
ATOM     21  O   UNL     1      -2.299   6.119  28.018  0.00  0.00    -0.390 OA
ATOM     22  H   UNL     1      -3.146   5.679  28.118  0.00  0.00    +0.210 HD
ENDBRANCH   9  21
ENDBRANCH   4   5
BRANCH   4  23
ATOM     23  O   UNL     1      -5.543  11.127  29.243  0.00  0.00    -0.387 OA
ATOM     24  H   UNL     1      -5.004  11.554  28.573  0.00  0.00    +0.210 HD
ENDBRANCH   4  23
ENDBRANCH   1   4
BRANCH   1  25
ATOM     25  C   UNL     1      -2.922  11.390  30.792  0.00  0.00    +0.141 C 
BRANCH  25  28
ATOM     26  C   UNL     1      -2.799  13.777  31.420  0.00  0.00    +0.401 C 
ATOM     27  O   UNL     1      -1.984  13.594  32.327  0.00  0.00    -0.226 OA
ATOM     28  N   UNL     1      -3.296  12.803  30.656  0.00  0.00    -0.279 N 
ATOM     29  H   UNL     1      -3.967  13.052  29.943  0.00  0.00    +0.152 HD
BRANCH  26  30
ATOM     30  O   UNL     1      -3.256  15.106  31.155  0.00  0.00    -0.444 OA
BRANCH  30  31
ATOM     31  C   UNL     1      -4.616  15.236  31.579  0.00  0.00    +0.292 C 
BRANCH  31  33
ATOM     32  N   UNL     1      -6.348  13.662  30.767  0.00  0.00    -0.131 NA
ATOM     33  C   UNL     1      -5.527  14.735  30.534  0.00  0.00    +0.120 A 
ATOM     34  C   UNL     1      -5.746  15.202  29.257  0.00  0.00    +0.137 A 
ATOM     35  N   UNL     1      -6.775  14.432  28.803  0.00  0.00    -0.247 N 
ATOM     36  N   UNL     1      -7.100  13.473  29.690  0.00  0.00    -0.065 NA
BRANCH  35  37
ATOM     37  C   UNL     1      -7.506  14.566  27.560  0.00  0.00    +0.180 C 
BRANCH  37  38
ATOM     38  C   UNL     1      -6.614  14.310  26.367  0.00  0.00    -0.026 A 
ATOM     39  C   UNL     1      -6.674  15.138  25.237  0.00  0.00    +0.006 A 
ATOM     40  C   UNL     1      -5.820  14.920  24.152  0.00  0.00    +0.015 A 
ATOM     41  C   UNL     1      -4.904  13.865  24.175  0.00  0.00    +0.059 A 
ATOM     42  C   UNL     1      -4.850  13.016  25.290  0.00  0.00    +0.015 A 
ATOM     43  C   UNL     1      -5.710  13.234  26.371  0.00  0.00    +0.006 A 
BRANCH  41  44
ATOM     44  C   UNL     1      -3.970  13.723  23.027  0.00  0.00    +0.337 C 
ATOM     45  O   UNL     1      -4.291  13.998  21.882  0.00  0.00    -0.245 OA
BRANCH  44  46
ATOM     46  O   UNL     1      -2.760  13.235  23.357  0.00  0.00    -0.477 OA
ATOM     47  H   UNL     1      -2.477  13.409  24.273  0.00  0.00    +0.295 HD
ENDBRANCH  44  46
ENDBRANCH  41  44
ENDBRANCH  37  38
ENDBRANCH  35  37
ENDBRANCH  31  33
ENDBRANCH  30  31
ENDBRANCH  26  30
ENDBRANCH  25  28
ENDBRANCH   1  25
TORSDOF 17
