REMARK VINA RESULT:    -4.325      3.280      3.859
REMARK INTER + INTRA:         -11.043
REMARK INTER:                  -7.930
REMARK INTRA:                  -3.113
REMARK UNBOUND:                -2.799
REMARK  Name = lig_assembled_55.pdb
REMARK  20 active torsions:
REMARK  status: ('A' for Active; 'I' for Inactive)
REMARK    1  A    between atoms: _2  and  _10
REMARK    2  A    between atoms: _3  and  _11
REMARK    3  A    between atoms: _3  and  _38
REMARK    4  A    between atoms: _5  and  _18
REMARK    5  A    between atoms: _6  and  _38
REMARK    6  A    between atoms: _7  and  _8
REMARK    7  A    between atoms: _7  and  _18
REMARK    8  A    between atoms: _10  and  _11
REMARK    9  A    between atoms: _14  and  _34
REMARK   10  A    between atoms: _16  and  _22
REMARK   11  A    between atoms: _17  and  _21
REMARK   12  A    between atoms: _21  and  _22
REMARK   13  A    between atoms: _24  and  _25
REMARK   14  A    between atoms: _26  and  _27
REMARK   15  A    between atoms: _28  and  _30
REMARK   16  A    between atoms: _30  and  _31
REMARK   17  A    between atoms: _30  and  _32
REMARK   18  A    between atoms: _32  and  _33
REMARK   19  A    between atoms: _32  and  _34
REMARK   20  A    between atoms: _35  and  _37
REMARK                            x       y       z     vdW  Elec       q    Type
REMARK                         _______ _______ _______ _____ _____    ______ ____
ROOT
ATOM      1  C   UNL     1      -4.333  10.772  25.302  0.00  0.00    +0.163 C 
ENDROOT
BRANCH   1   2
ATOM      2  O   UNL     1      -4.969  10.110  24.197  0.00  0.00    -0.388 OA
ATOM      3  H   UNL     1      -4.790  10.593  23.387  0.00  0.00    +0.210 HD
ENDBRANCH   1   2
BRANCH   1   4
ATOM      4  C   UNL     1      -2.908  10.234  25.519  0.00  0.00    +0.175 C 
BRANCH   4   5
ATOM      5  C   UNL     1      -2.899   8.942  26.349  0.00  0.00    +0.176 C 
ATOM      6  O   UNL     1      -3.343   7.856  25.489  0.00  0.00    -0.332 OA
ATOM      7  C   UNL     1      -3.297   6.517  26.085  0.00  0.00    +0.277 C 
ATOM      8  C   UNL     1      -4.089   6.489  27.415  0.00  0.00    +0.110 C 
ATOM      9  C   UNL     1      -3.674   7.645  28.349  0.00  0.00    +0.143 C 
ATOM     10  C   UNL     1      -3.755   8.990  27.628  0.00  0.00    +0.133 C 
BRANCH  10  11
ATOM     11  N   UNL     1      -3.275  10.073  28.500  0.00  0.00    -0.308 N 
ATOM     12  H   UNL     1      -2.289  10.100  28.720  0.00  0.00    +0.149 HD
ATOM     13  C   UNL     1      -4.056  11.024  29.020  0.00  0.00    +0.210 C 
ATOM     14  C   UNL     1      -5.558  10.941  28.688  0.00  0.00    +0.109 C 
ATOM     15  O   UNL     1      -3.623  11.927  29.736  0.00  0.00    -0.276 OA
ENDBRANCH  10  11
BRANCH   7  16
ATOM     16  C   UNL     1      -1.839   6.083  26.344  0.00  0.00    +0.414 C 
ATOM     17  O   UNL     1      -1.509   5.644  27.445  0.00  0.00    -0.240 OA
ATOM     18  O   UNL     1      -0.994   6.171  25.452  0.00  0.00    -0.240 OA
ENDBRANCH   7  16
BRANCH   7  19
ATOM     19  O   UNL     1      -3.925   5.593  25.159  0.00  0.00    -0.343 OA
ATOM     20  C   UNL     1      -5.018   6.148  24.386  0.00  0.00    +0.198 C 
ENDBRANCH   7  19
BRANCH   9  21
ATOM     21  O   UNL     1      -4.529   7.672  29.493  0.00  0.00    -0.390 OA
ATOM     22  H   UNL     1      -4.002   7.588  30.290  0.00  0.00    +0.210 HD
ENDBRANCH   9  21
ENDBRANCH   4   5
BRANCH   4  23
ATOM     23  O   UNL     1      -2.090  11.237  26.154  0.00  0.00    -0.387 OA
ATOM     24  H   UNL     1      -1.906  10.976  27.059  0.00  0.00    +0.210 HD
ENDBRANCH   4  23
ENDBRANCH   1   4
BRANCH   1  25
ATOM     25  C   UNL     1      -4.276  12.275  25.047  0.00  0.00    +0.141 C 
BRANCH  25  28
ATOM     26  C   UNL     1      -4.297  13.249  22.776  0.00  0.00    +0.401 C 
ATOM     27  O   UNL     1      -5.457  13.658  22.860  0.00  0.00    -0.226 OA
ATOM     28  N   UNL     1      -3.667  12.588  23.749  0.00  0.00    -0.279 N 
ATOM     29  H   UNL     1      -2.718  12.284  23.582  0.00  0.00    +0.152 HD
BRANCH  26  30
ATOM     30  O   UNL     1      -3.563  13.484  21.572  0.00  0.00    -0.444 OA
BRANCH  30  31
ATOM     31  C   UNL     1      -2.828  12.307  21.223  0.00  0.00    +0.292 C 
BRANCH  31  33
ATOM     32  N   UNL     1      -3.698  10.012  21.526  0.00  0.00    -0.131 NA
ATOM     33  C   UNL     1      -3.749  11.212  20.866  0.00  0.00    +0.120 A 
ATOM     34  C   UNL     1      -4.739  11.158  19.909  0.00  0.00    +0.137 A 
ATOM     35  N   UNL     1      -5.238   9.895  20.023  0.00  0.00    -0.250 N 
ATOM     36  N   UNL     1      -4.611   9.211  20.998  0.00  0.00    -0.065 NA
BRANCH  35  37
ATOM     37  C   UNL     1      -6.313   9.287  19.271  0.00  0.00    +0.162 C 
BRANCH  37  38
ATOM     38  C   UNL     1      -5.917   7.984  18.567  0.00  0.00    +0.129 C 
BRANCH  38  39
ATOM     39  N   UNL     1      -4.591   8.050  17.886  0.00  0.00    -0.193 NA
ATOM     40  H   UNL     1      -4.132   7.131  17.901  0.00  0.00    +0.148 HD
BRANCH  39  41
ATOM     41  S   UNL     1      -4.572   8.769  16.363  0.00  0.00    +0.027 S 
ATOM     42  O   UNL     1      -5.888   8.575  15.795  0.00  0.00    -0.158 OA
ATOM     43  O   UNL     1      -4.004  10.090  16.510  0.00  0.00    -0.158 OA
ATOM     44  C   UNL     1      -3.427   7.726  15.491  0.00  0.00    +0.214 C 
ENDBRANCH  39  41
ENDBRANCH  38  39
ENDBRANCH  37  38
ENDBRANCH  35  37
ENDBRANCH  31  33
ENDBRANCH  30  31
ENDBRANCH  26  30
ENDBRANCH  25  28
ENDBRANCH   1  25
TORSDOF 17
