REMARK VINA RESULT:    -5.190      3.247      7.153
REMARK INTER + INTRA:         -10.993
REMARK INTER:                  -7.982
REMARK INTRA:                  -3.011
REMARK UNBOUND:                -2.010
REMARK  Name = lig_assembled_49.pdb
REMARK  16 active torsions:
REMARK  status: ('A' for Active; 'I' for Inactive)
REMARK    1  A    between atoms: _2  and  _9
REMARK    2  A    between atoms: _4  and  _17
REMARK    3  A    between atoms: _6  and  _7
REMARK    4  A    between atoms: _6  and  _17
REMARK    5  A    between atoms: _13  and  _33
REMARK    6  A    between atoms: _15  and  _21
REMARK    7  A    between atoms: _16  and  _20
REMARK    8  A    between atoms: _20  and  _21
REMARK    9  A    between atoms: _23  and  _24
REMARK   10  A    between atoms: _25  and  _26
REMARK   11  A    between atoms: _27  and  _29
REMARK   12  A    between atoms: _29  and  _30
REMARK   13  A    between atoms: _29  and  _31
REMARK   14  A    between atoms: _31  and  _32
REMARK   15  A    between atoms: _31  and  _33
REMARK   16  A    between atoms: _34  and  _36
REMARK                            x       y       z     vdW  Elec       q    Type
REMARK                         _______ _______ _______ _____ _____    ______ ____
ROOT
ATOM      1  C   UNL     1      -5.962   9.248  23.839  0.00  0.00    +0.175 C 
ENDROOT
BRANCH   1   2
ATOM      2  C   UNL     1      -4.952  10.403  23.788  0.00  0.00    +0.176 C 
ATOM      3  O   UNL     1      -5.297  11.346  24.840  0.00  0.00    -0.332 OA
ATOM      4  C   UNL     1      -4.372  12.470  25.013  0.00  0.00    +0.277 C 
ATOM      5  C   UNL     1      -4.182  13.226  23.674  0.00  0.00    +0.110 C 
ATOM      6  C   UNL     1      -3.845  12.260  22.519  0.00  0.00    +0.143 C 
ATOM      7  C   UNL     1      -4.869  11.128  22.432  0.00  0.00    +0.133 C 
BRANCH   7   8
ATOM      8  N   UNL     1      -4.489  10.168  21.384  0.00  0.00    -0.308 N 
ATOM      9  H   UNL     1      -3.608   9.683  21.486  0.00  0.00    +0.149 HD
ATOM     10  C   UNL     1      -5.230   9.896  20.307  0.00  0.00    +0.210 C 
ATOM     11  C   UNL     1      -6.554  10.672  20.168  0.00  0.00    +0.109 C 
ATOM     12  O   UNL     1      -4.893   9.076  19.453  0.00  0.00    -0.276 OA
ENDBRANCH   7   8
BRANCH   4  13
ATOM     13  C   UNL     1      -3.003  11.978  25.526  0.00  0.00    +0.414 C 
ATOM     14  O   UNL     1      -1.965  12.496  25.117  0.00  0.00    -0.240 OA
ATOM     15  O   UNL     1      -2.936  11.063  26.348  0.00  0.00    -0.240 OA
ENDBRANCH   4  13
BRANCH   6  16
ATOM     16  O   UNL     1      -3.828  12.976  21.283  0.00  0.00    -0.390 OA
ATOM     17  H   UNL     1      -4.729  13.133  20.991  0.00  0.00    +0.210 HD
ENDBRANCH   6  16
BRANCH   4  18
ATOM     18  O   UNL     1      -4.954  13.386  25.976  0.00  0.00    -0.343 OA
ATOM     19  C   UNL     1      -5.922  12.793  26.877  0.00  0.00    +0.198 C 
ENDBRANCH   4  18
ENDBRANCH   1   2
BRANCH   1  20
ATOM     20  O   UNL     1      -7.308   9.766  23.862  0.00  0.00    -0.387 OA
ATOM     21  H   UNL     1      -7.374  10.455  24.527  0.00  0.00    +0.210 HD
ENDBRANCH   1  20
BRANCH   1  22
ATOM     22  C   UNL     1      -5.728   8.327  25.048  0.00  0.00    +0.163 C 
BRANCH  22  23
ATOM     23  O   UNL     1      -5.939   9.034  26.282  0.00  0.00    -0.388 OA
ATOM     24  H   UNL     1      -5.090   9.259  26.671  0.00  0.00    +0.210 HD
ENDBRANCH  22  23
BRANCH  22  25
ATOM     25  C   UNL     1      -4.308   7.774  25.000  0.00  0.00    +0.141 C 
BRANCH  25  28
ATOM     26  C   UNL     1      -2.379   7.571  26.532  0.00  0.00    +0.401 C 
ATOM     27  O   UNL     1      -1.842   6.667  25.887  0.00  0.00    -0.226 OA
ATOM     28  N   UNL     1      -3.536   8.142  26.193  0.00  0.00    -0.279 N 
ATOM     29  H   UNL     1      -3.902   8.869  26.792  0.00  0.00    +0.152 HD
BRANCH  26  30
ATOM     30  O   UNL     1      -1.744   8.048  27.721  0.00  0.00    -0.444 OA
BRANCH  30  31
ATOM     31  C   UNL     1      -2.561   7.743  28.854  0.00  0.00    +0.292 C 
BRANCH  31  33
ATOM     32  N   UNL     1      -4.459   9.327  28.950  0.00  0.00    -0.131 NA
ATOM     33  C   UNL     1      -3.205   8.967  29.368  0.00  0.00    +0.120 A 
ATOM     34  C   UNL     1      -2.742   9.904  30.263  0.00  0.00    +0.137 A 
ATOM     35  N   UNL     1      -3.756  10.813  30.342  0.00  0.00    -0.248 N 
ATOM     36  N   UNL     1      -4.786  10.460  29.555  0.00  0.00    -0.065 NA
BRANCH  35  37
ATOM     37  C   UNL     1      -3.795  12.027  31.120  0.00  0.00    +0.109 C 
ATOM     38  C   UNL     1      -2.637  12.165  32.112  0.00  0.00    +0.027 C 
ATOM     39  C   UNL     1      -2.657  13.645  32.452  0.00  0.00    +0.002 C 
ATOM     40  C   UNL     1      -2.961  14.330  31.126  0.00  0.00    +0.002 C 
ATOM     41  C   UNL     1      -3.749  13.318  30.291  0.00  0.00    +0.027 C 
ENDBRANCH  35  37
ENDBRANCH  31  33
ENDBRANCH  30  31
ENDBRANCH  26  30
ENDBRANCH  25  28
ENDBRANCH  22  25
ENDBRANCH   1  22
TORSDOF 14
