REMARK VINA RESULT:    -4.349      4.335      5.961
REMARK INTER + INTRA:         -10.901
REMARK INTER:                  -8.533
REMARK INTRA:                  -2.368
REMARK UNBOUND:                -3.373
REMARK  Name = lig_assembled_27.pdb
REMARK  16 active torsions:
REMARK  status: ('A' for Active; 'I' for Inactive)
REMARK    1  A    between atoms: _2  and  _9
REMARK    2  A    between atoms: _4  and  _18
REMARK    3  A    between atoms: _6  and  _7
REMARK    4  A    between atoms: _6  and  _18
REMARK    5  A    between atoms: _14  and  _34
REMARK    6  A    between atoms: _16  and  _22
REMARK    7  A    between atoms: _17  and  _21
REMARK    8  A    between atoms: _21  and  _22
REMARK    9  A    between atoms: _24  and  _25
REMARK   10  A    between atoms: _26  and  _27
REMARK   11  A    between atoms: _28  and  _30
REMARK   12  A    between atoms: _30  and  _31
REMARK   13  A    between atoms: _30  and  _32
REMARK   14  A    between atoms: _32  and  _33
REMARK   15  A    between atoms: _32  and  _34
REMARK   16  A    between atoms: _35  and  _37
REMARK                            x       y       z     vdW  Elec       q    Type
REMARK                         _______ _______ _______ _____ _____    ______ ____
ROOT
ATOM      1  C   UNL     1      -2.888  12.063  23.006  0.00  0.00    +0.163 C 
ENDROOT
BRANCH   1   2
ATOM      2  O   UNL     1      -2.219  12.227  24.268  0.00  0.00    -0.388 OA
ATOM      3  H   UNL     1      -1.282  12.374  24.117  0.00  0.00    +0.210 HD
ENDBRANCH   1   2
BRANCH   1   4
ATOM      4  C   UNL     1      -3.794  13.259  22.736  0.00  0.00    +0.141 C 
BRANCH   4   7
ATOM      5  C   UNL     1      -5.990  13.029  21.626  0.00  0.00    +0.401 C 
ATOM      6  O   UNL     1      -6.636  13.193  22.663  0.00  0.00    -0.226 OA
ATOM      7  N   UNL     1      -4.657  13.039  21.569  0.00  0.00    -0.279 N 
ATOM      8  H   UNL     1      -4.217  12.886  20.673  0.00  0.00    +0.152 HD
BRANCH   5   9
ATOM      9  O   UNL     1      -6.690  12.811  20.398  0.00  0.00    -0.444 OA
BRANCH   9  10
ATOM     10  C   UNL     1      -6.194  11.625  19.771  0.00  0.00    +0.292 C 
BRANCH  10  12
ATOM     11  N   UNL     1      -6.983  12.143  17.483  0.00  0.00    -0.131 NA
ATOM     12  C   UNL     1      -5.954  11.865  18.336  0.00  0.00    +0.121 A 
ATOM     13  C   UNL     1      -4.774  11.865  17.630  0.00  0.00    +0.143 A 
ATOM     14  N   UNL     1      -5.132  12.159  16.335  0.00  0.00    -0.220 N 
ATOM     15  N   UNL     1      -6.477  12.318  16.270  0.00  0.00    -0.060 NA
BRANCH  14  16
ATOM     16  C   UNL     1      -4.302  12.294  15.192  0.00  0.00    +0.068 A 
ATOM     17  C   UNL     1      -3.755  11.150  14.590  0.00  0.00    +0.028 A 
ATOM     18  C   UNL     1      -2.934  11.270  13.466  0.00  0.00    +0.003 A 
ATOM     19  C   UNL     1      -2.654  12.529  12.937  0.00  0.00    +0.020 A 
ATOM     20  C   UNL     1      -3.198  13.665  13.532  0.00  0.00    +0.043 A 
ATOM     21 CL   UNL     1      -2.853  15.219  12.877  0.00  0.00    -0.083 Cl
ATOM     22  C   UNL     1      -4.021  13.558  14.655  0.00  0.00    +0.047 A 
ENDBRANCH  14  16
ENDBRANCH  10  12
ENDBRANCH   9  10
ENDBRANCH   5   9
ENDBRANCH   4   7
ENDBRANCH   1   4
BRANCH   1  23
ATOM     23  C   UNL     1      -3.723  10.771  22.991  0.00  0.00    +0.175 C 
BRANCH  23  24
ATOM     24  C   UNL     1      -4.048  10.276  24.408  0.00  0.00    +0.176 C 
ATOM     25  O   UNL     1      -2.898   9.533  24.898  0.00  0.00    -0.332 OA
ATOM     26  C   UNL     1      -2.986   9.071  26.286  0.00  0.00    +0.277 C 
ATOM     27  C   UNL     1      -4.274   8.240  26.499  0.00  0.00    +0.110 C 
ATOM     28  C   UNL     1      -5.521   8.975  25.965  0.00  0.00    +0.143 C 
ATOM     29  C   UNL     1      -5.320   9.414  24.514  0.00  0.00    +0.133 C 
BRANCH  29  30
ATOM     30  N   UNL     1      -6.479  10.190  24.045  0.00  0.00    -0.308 N 
ATOM     31  H   UNL     1      -6.655  11.085  24.479  0.00  0.00    +0.149 HD
ATOM     32  C   UNL     1      -7.315   9.787  23.084  0.00  0.00    +0.210 C 
ATOM     33  C   UNL     1      -7.036   8.406  22.461  0.00  0.00    +0.109 C 
ATOM     34  O   UNL     1      -8.270  10.464  22.700  0.00  0.00    -0.276 OA
ENDBRANCH  29  30
BRANCH  26  35
ATOM     35  C   UNL     1      -2.975  10.266  27.262  0.00  0.00    +0.414 C 
ATOM     36  O   UNL     1      -3.460  10.151  28.387  0.00  0.00    -0.240 OA
ATOM     37  O   UNL     1      -2.483  11.343  26.925  0.00  0.00    -0.240 OA
ENDBRANCH  26  35
BRANCH  28  38
ATOM     38  O   UNL     1      -6.659   8.115  26.043  0.00  0.00    -0.390 OA
ATOM     39  H   UNL     1      -7.197   8.363  26.798  0.00  0.00    +0.210 HD
ENDBRANCH  28  38
BRANCH  26  40
ATOM     40  O   UNL     1      -1.842   8.217  26.548  0.00  0.00    -0.343 OA
ATOM     41  C   UNL     1      -2.167   6.846  26.890  0.00  0.00    +0.198 C 
ENDBRANCH  26  40
ENDBRANCH  23  24
BRANCH  23  42
ATOM     42  O   UNL     1      -3.035   9.743  22.252  0.00  0.00    -0.387 OA
ATOM     43  H   UNL     1      -2.343  10.141  21.718  0.00  0.00    +0.210 HD
ENDBRANCH  23  42
ENDBRANCH   1  23
TORSDOF 14
