REMARK VINA RESULT:    -4.603      4.730      8.574
REMARK INTER + INTRA:         -12.389
REMARK INTER:                  -9.241
REMARK INTRA:                  -3.148
REMARK UNBOUND:                -3.885
REMARK  Name = lig_assembled_79.pdb
REMARK  20 active torsions:
REMARK  status: ('A' for Active; 'I' for Inactive)
REMARK    1  A    between atoms: _2  and  _10
REMARK    2  A    between atoms: _5  and  _26
REMARK    3  A    between atoms: _7  and  _8
REMARK    4  A    between atoms: _7  and  _26
REMARK    5  A    between atoms: _10  and  _11
REMARK    6  A    between atoms: _10  and  _12
REMARK    7  A    between atoms: _10  and  _13
REMARK    8  A    between atoms: _13  and  _14
REMARK    9  A    between atoms: _22  and  _42
REMARK   10  A    between atoms: _24  and  _30
REMARK   11  A    between atoms: _25  and  _29
REMARK   12  A    between atoms: _29  and  _30
REMARK   13  A    between atoms: _32  and  _33
REMARK   14  A    between atoms: _34  and  _35
REMARK   15  A    between atoms: _36  and  _38
REMARK   16  A    between atoms: _38  and  _39
REMARK   17  A    between atoms: _38  and  _40
REMARK   18  A    between atoms: _40  and  _41
REMARK   19  A    between atoms: _40  and  _42
REMARK   20  A    between atoms: _43  and  _45
REMARK                            x       y       z     vdW  Elec       q    Type
REMARK                         _______ _______ _______ _____ _____    ______ ____
ROOT
ATOM      1  C   UNL     1      -7.395   9.940  20.402  0.00  0.00    +0.401 C 
ATOM      2  O   UNL     1      -6.723   9.059  19.860  0.00  0.00    -0.226 OA
ATOM      3  N   UNL     1      -7.721   9.939  21.695  0.00  0.00    -0.279 N 
ATOM      4  H   UNL     1      -8.268  10.711  22.049  0.00  0.00    +0.152 HD
ENDROOT
BRANCH   3   5
ATOM      5  C   UNL     1      -7.331   8.879  22.632  0.00  0.00    +0.141 C 
BRANCH   5   6
ATOM      6  C   UNL     1      -6.402   9.399  23.724  0.00  0.00    +0.163 C 
BRANCH   6   7
ATOM      7  O   UNL     1      -6.991   9.181  25.016  0.00  0.00    -0.388 OA
ATOM      8  H   UNL     1      -7.345  10.009  25.351  0.00  0.00    +0.210 HD
ENDBRANCH   6   7
BRANCH   6   9
ATOM      9  C   UNL     1      -5.038   8.696  23.616  0.00  0.00    +0.175 C 
BRANCH   9  10
ATOM     10  C   UNL     1      -3.923   9.487  24.315  0.00  0.00    +0.176 C 
ATOM     11  O   UNL     1      -4.232   9.535  25.735  0.00  0.00    -0.332 OA
ATOM     12  C   UNL     1      -3.216  10.165  26.584  0.00  0.00    +0.277 C 
ATOM     13  C   UNL     1      -2.890  11.589  26.072  0.00  0.00    +0.110 C 
ATOM     14  C   UNL     1      -2.586  11.594  24.559  0.00  0.00    +0.143 C 
ATOM     15  C   UNL     1      -3.705  10.912  23.772  0.00  0.00    +0.133 C 
BRANCH  15  16
ATOM     16  N   UNL     1      -3.363  10.846  22.342  0.00  0.00    -0.308 N 
ATOM     17  H   UNL     1      -2.595  10.250  22.068  0.00  0.00    +0.149 HD
ATOM     18  C   UNL     1      -4.003  11.521  21.383  0.00  0.00    +0.210 C 
ATOM     19  C   UNL     1      -5.153  12.440  21.837  0.00  0.00    +0.109 C 
ATOM     20  O   UNL     1      -3.704  11.435  20.192  0.00  0.00    -0.276 OA
ENDBRANCH  15  16
BRANCH  12  21
ATOM     21  C   UNL     1      -1.926   9.319  26.613  0.00  0.00    +0.414 C 
ATOM     22  O   UNL     1      -0.828   9.866  26.701  0.00  0.00    -0.240 OA
ATOM     23  O   UNL     1      -1.983   8.091  26.547  0.00  0.00    -0.240 OA
ENDBRANCH  12  21
BRANCH  14  24
ATOM     24  O   UNL     1      -2.441  12.939  24.101  0.00  0.00    -0.390 OA
ATOM     25  H   UNL     1      -3.308  13.318  23.940  0.00  0.00    +0.210 HD
ENDBRANCH  14  24
BRANCH  12  26
ATOM     26  O   UNL     1      -3.758  10.275  27.926  0.00  0.00    -0.343 OA
ATOM     27  C   UNL     1      -3.995  11.630  28.381  0.00  0.00    +0.198 C 
ENDBRANCH  12  26
ENDBRANCH   9  10
BRANCH   9  28
ATOM     28  O   UNL     1      -4.700   8.479  22.231  0.00  0.00    -0.387 OA
ATOM     29  H   UNL     1      -4.265   7.628  22.137  0.00  0.00    +0.210 HD
ENDBRANCH   9  28
ENDBRANCH   6   9
ENDBRANCH   5   6
ENDBRANCH   3   5
BRANCH   1  30
ATOM     30  O   UNL     1      -7.859  11.041  19.616  0.00  0.00    -0.444 OA
BRANCH  30  31
ATOM     31  C   UNL     1      -8.096  10.605  18.275  0.00  0.00    +0.292 C 
BRANCH  31  33
ATOM     32  N   UNL     1      -6.084  11.959  17.827  0.00  0.00    -0.131 NA
ATOM     33  C   UNL     1      -7.165  11.276  17.351  0.00  0.00    +0.120 A 
ATOM     34  C   UNL     1      -7.182  11.359  15.977  0.00  0.00    +0.138 A 
ATOM     35  N   UNL     1      -6.033  12.030  15.659  0.00  0.00    -0.238 N 
ATOM     36  N   UNL     1      -5.424  12.455  16.793  0.00  0.00    -0.064 NA
BRANCH  35  37
ATOM     37  C   UNL     1      -5.510  12.502  14.343  0.00  0.00    +0.122 C 
ATOM     38  C   UNL     1      -4.204  13.275  14.642  0.00  0.00    +0.044 C 
ATOM     39  C   UNL     1      -6.645  13.358  13.748  0.00  0.00    +0.044 C 
BRANCH  37  40
ATOM     40  C   UNL     1      -5.155  11.354  13.375  0.00  0.00    +0.192 C 
ATOM     41  O   UNL     1      -5.743  11.245  12.295  0.00  0.00    -0.289 OA
BRANCH  40  42
ATOM     42  C   UNL     1      -4.123  10.324  13.693  0.00  0.00    +0.045 A 
ATOM     43  C   UNL     1      -2.991  10.210  12.894  0.00  0.00    +0.095 A 
ATOM     44  N   UNL     1      -2.207   9.194  13.350  0.00  0.00    -0.360 N 
ATOM     45  H   UNL     1      -1.332   8.899  12.938  0.00  0.00    +0.165 HD
ATOM     46  C   UNL     1      -2.784   8.615  14.450  0.00  0.00    +0.047 A 
ATOM     47  C   UNL     1      -2.322   7.537  15.220  0.00  0.00    +0.026 A 
ATOM     48  C   UNL     1      -3.097   7.119  16.301  0.00  0.00    +0.002 A 
ATOM     49  C   UNL     1      -4.288   7.759  16.602  0.00  0.00    +0.001 A 
ATOM     50  C   UNL     1      -4.732   8.834  15.822  0.00  0.00    +0.011 A 
ATOM     51  C   UNL     1      -3.983   9.294  14.708  0.00  0.00    +0.010 A 
ENDBRANCH  40  42
ENDBRANCH  37  40
ENDBRANCH  35  37
ENDBRANCH  31  33
ENDBRANCH  30  31
ENDBRANCH   1  30
TORSDOF 16
