REMARK VINA RESULT:    -4.928      6.757     10.204
REMARK INTER + INTRA:         -10.575
REMARK INTER:                  -8.611
REMARK INTRA:                  -1.964
REMARK UNBOUND:                -2.334
REMARK  Name = lig_assembled_65.pdb
REMARK  16 active torsions:
REMARK  status: ('A' for Active; 'I' for Inactive)
REMARK    1  A    between atoms: _8  and  _20
REMARK    2  A    between atoms: _9  and  _15
REMARK    3  A    between atoms: _10  and  _11
REMARK    4  A    between atoms: _10  and  _20
REMARK    5  A    between atoms: _16  and  _36
REMARK    6  A    between atoms: _18  and  _24
REMARK    7  A    between atoms: _19  and  _23
REMARK    8  A    between atoms: _23  and  _24
REMARK    9  A    between atoms: _26  and  _27
REMARK   10  A    between atoms: _28  and  _29
REMARK   11  A    between atoms: _30  and  _32
REMARK   12  A    between atoms: _32  and  _33
REMARK   13  A    between atoms: _32  and  _34
REMARK   14  A    between atoms: _34  and  _35
REMARK   15  A    between atoms: _34  and  _36
REMARK   16  A    between atoms: _37  and  _39
REMARK                            x       y       z     vdW  Elec       q    Type
REMARK                         _______ _______ _______ _____ _____    ______ ____
ROOT
ATOM      1  C   UNL     1      -3.380  12.347  24.243  0.00  0.00    +0.163 C 
ENDROOT
BRANCH   1   2
ATOM      2  O   UNL     1      -1.977  12.591  24.436  0.00  0.00    -0.388 OA
ATOM      3  H   UNL     1      -1.837  13.522  24.626  0.00  0.00    +0.210 HD
ENDBRANCH   1   2
BRANCH   1   4
ATOM      4  C   UNL     1      -3.612  10.879  23.904  0.00  0.00    +0.141 C 
BRANCH   4   7
ATOM      5  C   UNL     1      -3.014   9.705  25.995  0.00  0.00    +0.401 C 
ATOM      6  O   UNL     1      -1.812   9.970  25.910  0.00  0.00    -0.226 OA
ATOM      7  N   UNL     1      -3.926  10.084  25.098  0.00  0.00    -0.279 N 
ATOM      8  H   UNL     1      -4.886   9.810  25.249  0.00  0.00    +0.152 HD
BRANCH   5   9
ATOM      9  O   UNL     1      -3.480   8.942  27.110  0.00  0.00    -0.444 OA
BRANCH   9  10
ATOM     10  C   UNL     1      -4.799   9.367  27.462  0.00  0.00    +0.292 C 
BRANCH  10  12
ATOM     11  N   UNL     1      -5.427  11.761  27.533  0.00  0.00    -0.131 NA
ATOM     12  C   UNL     1      -4.761  10.702  28.087  0.00  0.00    +0.121 A 
ATOM     13  C   UNL     1      -4.122  11.122  29.229  0.00  0.00    +0.149 A 
ATOM     14  N   UNL     1      -4.420  12.464  29.330  0.00  0.00    -0.155 N 
ATOM     15  C   UNL     1      -3.980  13.370  30.339  0.00  0.00    +0.416 C 
ATOM     16  N   UNL     1      -4.379  14.646  30.274  0.00  0.00    +0.041 NA
ATOM     17  C   UNL     1      -3.912  15.433  31.240  0.00  0.00    +0.339 C 
ATOM     18  C   UNL     1      -4.312  16.875  31.213  0.00  0.00    +0.149 C 
ATOM     19  N   UNL     1      -3.106  15.029  32.222  0.00  0.00    +0.007 NA
ATOM     20  C   UNL     1      -2.761  13.752  32.187  0.00  0.00    +0.386 C 
ATOM     21  N   UNL     1      -1.918  13.295  33.178  0.00  0.00    -0.296 N 
ATOM     22  H   UNL     1      -1.962  13.896  33.990  0.00  0.00    +0.148 HD
ATOM     23  H   UNL     1      -2.028  12.302  33.326  0.00  0.00    +0.148 HD
ATOM     24  N   UNL     1      -3.177  12.874  31.293  0.00  0.00    -0.290 NA
ATOM     25  N   UNL     1      -5.219  12.828  28.295  0.00  0.00    -0.055 NA
ENDBRANCH  10  12
ENDBRANCH   9  10
ENDBRANCH   5   9
ENDBRANCH   4   7
ENDBRANCH   1   4
BRANCH   1  26
ATOM     26  C   UNL     1      -3.941  13.230  23.115  0.00  0.00    +0.175 C 
BRANCH  26  27
ATOM     27  C   UNL     1      -5.058  12.525  22.331  0.00  0.00    +0.176 C 
ATOM     28  O   UNL     1      -4.702  12.554  20.922  0.00  0.00    -0.332 OA
ATOM     29  C   UNL     1      -5.608  11.829  20.024  0.00  0.00    +0.277 C 
ATOM     30  C   UNL     1      -7.063  12.327  20.207  0.00  0.00    +0.110 C 
ATOM     31  C   UNL     1      -7.476  12.345  21.693  0.00  0.00    +0.143 C 
ATOM     32  C   UNL     1      -6.464  13.122  22.535  0.00  0.00    +0.133 C 
BRANCH  32  33
ATOM     33  N   UNL     1      -6.822  13.058  23.961  0.00  0.00    -0.308 N 
ATOM     34  H   UNL     1      -6.888  12.146  24.390  0.00  0.00    +0.149 HD
ATOM     35  C   UNL     1      -7.066  14.127  24.724  0.00  0.00    +0.210 C 
ATOM     36  C   UNL     1      -6.982  15.501  24.034  0.00  0.00    +0.109 C 
ATOM     37  O   UNL     1      -7.350  14.044  25.920  0.00  0.00    -0.276 OA
ENDBRANCH  32  33
BRANCH  29  38
ATOM     38  C   UNL     1      -5.545  10.311  20.293  0.00  0.00    +0.414 C 
ATOM     39  O   UNL     1      -4.458   9.741  20.380  0.00  0.00    -0.240 OA
ATOM     40  O   UNL     1      -6.580   9.657  20.422  0.00  0.00    -0.240 OA
ENDBRANCH  29  38
BRANCH  29  41
ATOM     41  O   UNL     1      -5.199  12.101  18.659  0.00  0.00    -0.343 OA
ATOM     42  C   UNL     1      -6.016  11.474  17.639  0.00  0.00    +0.198 C 
ENDBRANCH  29  41
BRANCH  31  43
ATOM     43  O   UNL     1      -8.763  12.950  21.828  0.00  0.00    -0.390 OA
ATOM     44  H   UNL     1      -8.778  13.781  21.347  0.00  0.00    +0.210 HD
ENDBRANCH  31  43
ENDBRANCH  26  27
BRANCH  26  45
ATOM     45  O   UNL     1      -2.882  13.627  22.221  0.00  0.00    -0.387 OA
ATOM     46  H   UNL     1      -2.569  12.861  21.734  0.00  0.00    +0.210 HD
ENDBRANCH  26  45
ENDBRANCH   1  26
TORSDOF 13
