REMARK VINA RESULT:    -4.962      5.259      7.329
REMARK INTER + INTRA:         -11.152
REMARK INTER:                  -9.458
REMARK INTRA:                  -1.695
REMARK UNBOUND:                -1.695
REMARK  Name = lig_assembled_12.pdb
REMARK  19 active torsions:
REMARK  status: ('A' for Active; 'I' for Inactive)
REMARK    1  A    between atoms: _2  and  _9
REMARK    2  A    between atoms: _4  and  _21
REMARK    3  A    between atoms: _6  and  _7
REMARK    4  A    between atoms: _6  and  _21
REMARK    5  A    between atoms: _9  and  _16
REMARK    6  A    between atoms: _10  and  _11
REMARK    7  A    between atoms: _10  and  _16
REMARK    8  A    between atoms: _17  and  _37
REMARK    9  A    between atoms: _19  and  _25
REMARK   10  A    between atoms: _20  and  _24
REMARK   11  A    between atoms: _24  and  _25
REMARK   12  A    between atoms: _27  and  _28
REMARK   13  A    between atoms: _29  and  _30
REMARK   14  A    between atoms: _31  and  _33
REMARK   15  A    between atoms: _33  and  _34
REMARK   16  A    between atoms: _33  and  _35
REMARK   17  A    between atoms: _35  and  _36
REMARK   18  A    between atoms: _35  and  _37
REMARK   19  A    between atoms: _38  and  _40
REMARK                            x       y       z     vdW  Elec       q    Type
REMARK                         _______ _______ _______ _____ _____    ______ ____
ROOT
ATOM      1  C   UNL     1      -6.602  10.000  21.501  0.00  0.00    +0.163 C 
ENDROOT
BRANCH   1   2
ATOM      2  O   UNL     1      -5.306   9.655  20.986  0.00  0.00    -0.388 OA
ATOM      3  H   UNL     1      -4.970  10.378  20.451  0.00  0.00    +0.210 HD
ENDBRANCH   1   2
BRANCH   1   4
ATOM      4  C   UNL     1      -6.481  10.949  22.706  0.00  0.00    +0.175 C 
BRANCH   4   5
ATOM      5  C   UNL     1      -5.269  10.612  23.587  0.00  0.00    +0.176 C 
ATOM      6  O   UNL     1      -5.751  10.371  24.937  0.00  0.00    -0.332 OA
ATOM      7  C   UNL     1      -4.740   9.929  25.903  0.00  0.00    +0.277 C 
ATOM      8  C   UNL     1      -3.556  10.927  25.940  0.00  0.00    +0.110 C 
ATOM      9  C   UNL     1      -3.029  11.239  24.523  0.00  0.00    +0.143 C 
ATOM     10  C   UNL     1      -4.165  11.686  23.602  0.00  0.00    +0.133 C 
BRANCH  10  11
ATOM     11  N   UNL     1      -3.666  11.896  22.234  0.00  0.00    -0.308 N 
ATOM     12  H   UNL     1      -3.351  11.087  21.717  0.00  0.00    +0.149 HD
ATOM     13  C   UNL     1      -3.600  13.086  21.631  0.00  0.00    +0.210 C 
ATOM     14  C   UNL     1      -4.062  14.303  22.455  0.00  0.00    +0.109 C 
ATOM     15  O   UNL     1      -3.191  13.231  20.479  0.00  0.00    -0.276 OA
ENDBRANCH  10  11
BRANCH   7  16
ATOM     16  C   UNL     1      -4.218   8.523  25.543  0.00  0.00    +0.414 C 
ATOM     17  O   UNL     1      -5.000   7.648  25.172  0.00  0.00    -0.240 OA
ATOM     18  O   UNL     1      -3.017   8.263  25.624  0.00  0.00    -0.240 OA
ENDBRANCH   7  16
BRANCH   9  19
ATOM     19  O   UNL     1      -2.045  12.271  24.592  0.00  0.00    -0.390 OA
ATOM     20  H   UNL     1      -1.784  12.525  23.704  0.00  0.00    +0.210 HD
ENDBRANCH   9  19
BRANCH   7  21
ATOM     21  O   UNL     1      -5.356   9.901  27.216  0.00  0.00    -0.343 OA
ATOM     22  C   UNL     1      -5.574  11.202  27.819  0.00  0.00    +0.198 C 
ENDBRANCH   7  21
ENDBRANCH   4   5
BRANCH   4  23
ATOM     23  O   UNL     1      -7.690  10.914  23.489  0.00  0.00    -0.387 OA
ATOM     24  H   UNL     1      -7.694  11.650  24.105  0.00  0.00    +0.210 HD
ENDBRANCH   4  23
ENDBRANCH   1   4
BRANCH   1  25
ATOM     25  C   UNL     1      -7.437  10.664  20.411  0.00  0.00    +0.141 C 
BRANCH  25  28
ATOM     26  C   UNL     1      -6.749  10.889  18.048  0.00  0.00    +0.401 C 
ATOM     27  O   UNL     1      -6.638  12.116  18.099  0.00  0.00    -0.226 OA
ATOM     28  N   UNL     1      -7.123  10.130  19.080  0.00  0.00    -0.279 N 
ATOM     29  H   UNL     1      -7.195   9.133  18.937  0.00  0.00    +0.152 HD
BRANCH  26  30
ATOM     30  O   UNL     1      -6.469  10.216  16.818  0.00  0.00    -0.444 OA
BRANCH  30  31
ATOM     31  C   UNL     1      -5.139   9.691  16.852  0.00  0.00    +0.292 C 
BRANCH  31  33
ATOM     32  N   UNL     1      -3.700  11.448  15.858  0.00  0.00    -0.131 NA
ATOM     33  C   UNL     1      -4.339  10.240  15.743  0.00  0.00    +0.120 A 
ATOM     34  C   UNL     1      -4.092   9.719  14.494  0.00  0.00    +0.139 A 
ATOM     35  N   UNL     1      -3.322  10.667  13.887  0.00  0.00    -0.226 N 
ATOM     36  N   UNL     1      -3.068  11.695  14.718  0.00  0.00    -0.063 NA
BRANCH  35  37
ATOM     37  C   UNL     1      -2.750  10.650  12.551  0.00  0.00    +0.305 C 
BRANCH  37  38
ATOM     38  O   UNL     1      -1.674  11.584  12.491  0.00  0.00    -0.353 OA
BRANCH  38  39
ATOM     39  C   UNL     1      -1.778  12.433  11.356  0.00  0.00    +0.197 C 
BRANCH  39  40
ATOM     40  C   UNL     1      -0.740  13.512  11.502  0.00  0.00    -0.022 A 
ATOM     41  C   UNL     1      -0.820  14.442  12.548  0.00  0.00    +0.006 A 
ATOM     42  C   UNL     1       0.121  15.466  12.661  0.00  0.00    +0.000 A 
ATOM     43  C   UNL     1       1.147  15.576  11.724  0.00  0.00    +0.000 A 
ATOM     44  C   UNL     1       1.232  14.665  10.673  0.00  0.00    +0.000 A 
ATOM     45  C   UNL     1       0.291  13.640  10.560  0.00  0.00    +0.006 A 
ENDBRANCH  39  40
ENDBRANCH  38  39
ENDBRANCH  37  38
ENDBRANCH  35  37
ENDBRANCH  31  33
ENDBRANCH  30  31
ENDBRANCH  26  30
ENDBRANCH  25  28
ENDBRANCH   1  25
TORSDOF 17
