REMARK VINA RESULT:    -3.905      5.329     11.068
REMARK INTER + INTRA:         -10.950
REMARK INTER:                  -7.078
REMARK INTRA:                  -3.872
REMARK UNBOUND:                -3.049
REMARK  Name = lig_assembled_45.pdb
REMARK  24 active torsions:
REMARK  status: ('A' for Active; 'I' for Inactive)
REMARK    1  A    between atoms: _2  and  _10
REMARK    2  A    between atoms: _3  and  _12
REMARK    3  A    between atoms: _3  and  _13
REMARK    4  A    between atoms: _3  and  _14
REMARK    5  A    between atoms: _3  and  _16
REMARK    6  A    between atoms: _5  and  _21
REMARK    7  A    between atoms: _6  and  _16
REMARK    8  A    between atoms: _7  and  _8
REMARK    9  A    between atoms: _7  and  _21
REMARK   10  A    between atoms: _10  and  _11
REMARK   11  A    between atoms: _11  and  _12
REMARK   12  A    between atoms: _14  and  _15
REMARK   13  A    between atoms: _17  and  _37
REMARK   14  A    between atoms: _19  and  _25
REMARK   15  A    between atoms: _20  and  _24
REMARK   16  A    between atoms: _24  and  _25
REMARK   17  A    between atoms: _27  and  _28
REMARK   18  A    between atoms: _29  and  _30
REMARK   19  A    between atoms: _31  and  _33
REMARK   20  A    between atoms: _33  and  _34
REMARK   21  A    between atoms: _33  and  _35
REMARK   22  A    between atoms: _35  and  _36
REMARK   23  A    between atoms: _35  and  _37
REMARK   24  A    between atoms: _38  and  _40
REMARK                            x       y       z     vdW  Elec       q    Type
REMARK                         _______ _______ _______ _____ _____    ______ ____
ROOT
ATOM      1  C   UNL     1      -2.575  10.484  26.229  0.00  0.00    +0.163 C 
ENDROOT
BRANCH   1   2
ATOM      2  O   UNL     1      -3.000  10.029  24.934  0.00  0.00    -0.388 OA
ATOM      3  H   UNL     1      -2.366  10.312  24.271  0.00  0.00    +0.210 HD
ENDBRANCH   1   2
BRANCH   1   4
ATOM      4  C   UNL     1      -3.747  11.109  27.004  0.00  0.00    +0.175 C 
BRANCH   4   5
ATOM      5  C   UNL     1      -4.769  11.773  26.070  0.00  0.00    +0.176 C 
ATOM      6  O   UNL     1      -4.039  12.604  25.126  0.00  0.00    -0.332 OA
ATOM      7  C   UNL     1      -4.848  13.239  24.082  0.00  0.00    +0.277 C 
ATOM      8  C   UNL     1      -6.002  14.055  24.713  0.00  0.00    +0.110 C 
ATOM      9  C   UNL     1      -6.789  13.223  25.747  0.00  0.00    +0.143 C 
ATOM     10  C   UNL     1      -5.849  12.606  26.784  0.00  0.00    +0.133 C 
BRANCH  10  11
ATOM     11  N   UNL     1      -6.600  11.746  27.713  0.00  0.00    -0.308 N 
ATOM     12  H   UNL     1      -7.042  10.919  27.336  0.00  0.00    +0.149 HD
ATOM     13  C   UNL     1      -6.735  11.987  29.019  0.00  0.00    +0.210 C 
ATOM     14  C   UNL     1      -6.072  13.269  29.557  0.00  0.00    +0.109 C 
ATOM     15  O   UNL     1      -7.358  11.241  29.776  0.00  0.00    -0.276 OA
ENDBRANCH  10  11
BRANCH   7  16
ATOM     16  C   UNL     1      -5.430  12.180  23.122  0.00  0.00    +0.414 C 
ATOM     17  O   UNL     1      -6.606  12.246  22.765  0.00  0.00    -0.240 OA
ATOM     18  O   UNL     1      -4.724  11.261  22.704  0.00  0.00    -0.240 OA
ENDBRANCH   7  16
BRANCH   9  19
ATOM     19  O   UNL     1      -7.741  14.055  26.411  0.00  0.00    -0.390 OA
ATOM     20  H   UNL     1      -7.450  14.969  26.372  0.00  0.00    +0.210 HD
ENDBRANCH   9  19
BRANCH   7  21
ATOM     21  O   UNL     1      -3.993  14.150  23.344  0.00  0.00    -0.343 OA
ATOM     22  C   UNL     1      -4.679  14.985  22.377  0.00  0.00    +0.198 C 
ENDBRANCH   7  21
ENDBRANCH   4   5
BRANCH   4  23
ATOM     23  O   UNL     1      -3.254  12.067  27.962  0.00  0.00    -0.387 OA
ATOM     24  H   UNL     1      -3.992  12.436  28.455  0.00  0.00    +0.210 HD
ENDBRANCH   4  23
ENDBRANCH   1   4
BRANCH   1  25
ATOM     25  C   UNL     1      -1.999   9.319  27.028  0.00  0.00    +0.141 C 
BRANCH  25  28
ATOM     26  C   UNL     1      -2.501   8.180  29.163  0.00  0.00    +0.401 C 
ATOM     27  O   UNL     1      -2.004   7.106  28.815  0.00  0.00    -0.226 OA
ATOM     28  N   UNL     1      -2.547   9.265  28.389  0.00  0.00    -0.279 N 
ATOM     29  H   UNL     1      -2.984  10.097  28.760  0.00  0.00    +0.152 HD
BRANCH  26  30
ATOM     30  O   UNL     1      -3.071   8.291  30.470  0.00  0.00    -0.444 OA
BRANCH  30  31
ATOM     31  C   UNL     1      -4.289   9.037  30.398  0.00  0.00    +0.292 C 
BRANCH  31  33
ATOM     32  N   UNL     1      -3.208  11.198  30.958  0.00  0.00    -0.131 NA
ATOM     33  C   UNL     1      -4.182  10.267  31.204  0.00  0.00    +0.120 A 
ATOM     34  C   UNL     1      -4.952  10.692  32.263  0.00  0.00    +0.137 A 
ATOM     35  N   UNL     1      -4.390  11.885  32.604  0.00  0.00    -0.251 N 
ATOM     36  N   UNL     1      -3.345  12.188  31.831  0.00  0.00    -0.065 NA
BRANCH  35  37
ATOM     37  C   UNL     1      -4.794  12.769  33.678  0.00  0.00    +0.150 C 
BRANCH  37  38
ATOM     38  C   UNL     1      -5.693  13.903  33.205  0.00  0.00    +0.074 C 
BRANCH  38  39
ATOM     39  C   UNL     1      -5.310  15.321  33.649  0.00  0.00    +0.134 C 
BRANCH  39  40
ATOM     40  N   UNL     1      -4.140  16.035  32.895  0.00  0.00    +0.241 N 
ATOM     41  C   UNL     1      -2.805  15.578  33.508  0.00  0.00    +0.192 C 
BRANCH  40  42
ATOM     42  C   UNL     1      -4.314  17.565  33.174  0.00  0.00    +0.129 C 
ATOM     43  C   UNL     1      -3.001  18.312  33.379  0.00  0.00    +0.060 C 
ENDBRANCH  40  42
BRANCH  40  44
ATOM     44  C   UNL     1      -4.103  15.785  31.376  0.00  0.00    +0.129 C 
ATOM     45  C   UNL     1      -4.999  16.710  30.570  0.00  0.00    +0.060 C 
ENDBRANCH  40  44
ENDBRANCH  39  40
ENDBRANCH  38  39
ENDBRANCH  37  38
ENDBRANCH  35  37
ENDBRANCH  31  33
ENDBRANCH  30  31
ENDBRANCH  26  30
ENDBRANCH  25  28
ENDBRANCH   1  25
TORSDOF 19
