REMARK VINA RESULT:    -4.496      2.400      8.589
REMARK INTER + INTRA:         -12.289
REMARK INTER:                  -8.364
REMARK INTRA:                  -3.925
REMARK UNBOUND:                -3.062
REMARK  Name = lig_assembled_74.pdb
REMARK  24 active torsions:
REMARK  status: ('A' for Active; 'I' for Inactive)
REMARK    1  A    between atoms: _2  and  _9
REMARK    2  A    between atoms: _4  and  _22
REMARK    3  A    between atoms: _5  and  _14
REMARK    4  A    between atoms: _6  and  _7
REMARK    5  A    between atoms: _6  and  _22
REMARK    6  A    between atoms: _9  and  _10
REMARK    7  A    between atoms: _10  and  _11
REMARK    8  A    between atoms: _10  and  _13
REMARK    9  A    between atoms: _11  and  _12
REMARK   10  A    between atoms: _12  and  _16
REMARK   11  A    between atoms: _13  and  _14
REMARK   12  A    between atoms: _14  and  _15
REMARK   13  A    between atoms: _18  and  _38
REMARK   14  A    between atoms: _20  and  _26
REMARK   15  A    between atoms: _21  and  _25
REMARK   16  A    between atoms: _25  and  _26
REMARK   17  A    between atoms: _28  and  _29
REMARK   18  A    between atoms: _30  and  _31
REMARK   19  A    between atoms: _32  and  _34
REMARK   20  A    between atoms: _34  and  _35
REMARK   21  A    between atoms: _34  and  _36
REMARK   22  A    between atoms: _36  and  _37
REMARK   23  A    between atoms: _36  and  _38
REMARK   24  A    between atoms: _39  and  _41
REMARK                            x       y       z     vdW  Elec       q    Type
REMARK                         _______ _______ _______ _____ _____    ______ ____
ROOT
ATOM      1  C   UNL     1      -4.067   9.289  24.361  0.00  0.00    +0.163 C 
ENDROOT
BRANCH   1   2
ATOM      2  O   UNL     1      -4.675   9.224  23.061  0.00  0.00    -0.388 OA
ATOM      3  H   UNL     1      -5.289   9.955  22.957  0.00  0.00    +0.210 HD
ENDBRANCH   1   2
BRANCH   1   4
ATOM      4  C   UNL     1      -4.654  10.447  25.186  0.00  0.00    +0.175 C 
BRANCH   4   5
ATOM      5  C   UNL     1      -5.424  11.447  24.311  0.00  0.00    +0.176 C 
ATOM      6  O   UNL     1      -4.500  11.979  23.322  0.00  0.00    -0.332 OA
ATOM      7  C   UNL     1      -5.088  12.878  22.324  0.00  0.00    +0.277 C 
ATOM      8  C   UNL     1      -5.836  14.042  23.020  0.00  0.00    +0.110 C 
ATOM      9  C   UNL     1      -6.807  13.528  24.103  0.00  0.00    +0.143 C 
ATOM     10  C   UNL     1      -6.092  12.599  25.085  0.00  0.00    +0.133 C 
BRANCH  10  11
ATOM     11  N   UNL     1      -7.045  12.047  26.061  0.00  0.00    -0.308 N 
ATOM     12  H   UNL     1      -7.763  11.424  25.718  0.00  0.00    +0.149 HD
ATOM     13  C   UNL     1      -7.024  12.316  27.369  0.00  0.00    +0.210 C 
ATOM     14  C   UNL     1      -5.934  13.289  27.855  0.00  0.00    +0.109 C 
ATOM     15  O   UNL     1      -7.827  11.828  28.165  0.00  0.00    -0.276 OA
ENDBRANCH  10  11
BRANCH   7  16
ATOM     16  C   UNL     1      -6.064  12.114  21.406  0.00  0.00    +0.414 C 
ATOM     17  O   UNL     1      -5.955  10.897  21.262  0.00  0.00    -0.240 OA
ATOM     18  O   UNL     1      -6.959  12.713  20.810  0.00  0.00    -0.240 OA
ENDBRANCH   7  16
BRANCH   9  19
ATOM     19  O   UNL     1      -7.360  14.633  24.819  0.00  0.00    -0.390 OA
ATOM     20  H   UNL     1      -7.113  15.453  24.383  0.00  0.00    +0.210 HD
ENDBRANCH   9  19
BRANCH   7  21
ATOM     21  O   UNL     1      -4.008  13.437  21.532  0.00  0.00    -0.343 OA
ATOM     22  C   UNL     1      -3.280  14.518  22.167  0.00  0.00    +0.198 C 
ENDBRANCH   7  21
ENDBRANCH   4   5
BRANCH   4  23
ATOM     23  O   UNL     1      -3.606  11.123  25.909  0.00  0.00    -0.387 OA
ATOM     24  H   UNL     1      -3.510  10.726  26.779  0.00  0.00    +0.210 HD
ENDBRANCH   4  23
ENDBRANCH   1   4
BRANCH   1  25
ATOM     25  C   UNL     1      -4.282   7.974  25.104  0.00  0.00    +0.141 C 
BRANCH  25  28
ATOM     26  C   UNL     1      -2.619   7.642  26.901  0.00  0.00    +0.401 C 
ATOM     27  O   UNL     1      -1.771   7.148  26.155  0.00  0.00    -0.226 OA
ATOM     28  N   UNL     1      -3.822   8.051  26.496  0.00  0.00    -0.279 N 
ATOM     29  H   UNL     1      -4.453   8.434  27.186  0.00  0.00    +0.152 HD
BRANCH  26  30
ATOM     30  O   UNL     1      -2.317   7.792  28.291  0.00  0.00    -0.444 OA
BRANCH  30  31
ATOM     31  C   UNL     1      -2.171   9.181  28.601  0.00  0.00    +0.292 C 
BRANCH  31  33
ATOM     32  N   UNL     1      -3.059   9.253  30.918  0.00  0.00    -0.131 NA
ATOM     33  C   UNL     1      -3.174   9.602  29.599  0.00  0.00    +0.120 A 
ATOM     34  C   UNL     1      -4.270  10.423  29.445  0.00  0.00    +0.137 A 
ATOM     35  N   UNL     1      -4.662  10.679  30.728  0.00  0.00    -0.251 N 
ATOM     36  N   UNL     1      -3.995   9.900  31.600  0.00  0.00    -0.065 NA
BRANCH  35  37
ATOM     37  C   UNL     1      -5.394  11.837  31.201  0.00  0.00    +0.149 C 
BRANCH  37  38
ATOM     38  C   UNL     1      -4.561  13.124  31.386  0.00  0.00    +0.021 C 
BRANCH  38  39
ATOM     39  C   UNL     1      -3.693  13.114  32.661  0.00  0.00    +0.125 C 
BRANCH  39  40
ATOM     40  C   UNL     1      -2.204  12.983  32.414  0.00  0.00    +0.305 C 
ATOM     41  O   UNL     1      -1.416  13.914  32.382  0.00  0.00    -0.251 OA
BRANCH  40  42
ATOM     42  O   UNL     1      -1.802  11.704  32.294  0.00  0.00    -0.481 OA
ATOM     43  H   UNL     1      -0.878  11.529  32.549  0.00  0.00    +0.295 HD
ENDBRANCH  40  42
ENDBRANCH  39  40
ENDBRANCH  38  39
BRANCH  38  44
ATOM     44  C   UNL     1      -5.504  14.359  31.300  0.00  0.00    +0.009 C 
BRANCH  44  45
ATOM     45  C   UNL     1      -4.937  15.591  30.564  0.00  0.00    -0.017 C 
ATOM     46  C   UNL     1      -6.039  16.453  29.944  0.00  0.00    +0.007 C 
ATOM     47  C   UNL     1      -4.107  16.455  31.521  0.00  0.00    +0.007 C 
ENDBRANCH  44  45
ENDBRANCH  38  44
ENDBRANCH  37  38
ENDBRANCH  35  37
ENDBRANCH  31  33
ENDBRANCH  30  31
ENDBRANCH  26  30
ENDBRANCH  25  28
ENDBRANCH   1  25
TORSDOF 20
