REMARK VINA RESULT:    -4.665      3.279      6.392
REMARK INTER + INTRA:         -11.167
REMARK INTER:                  -7.582
REMARK INTRA:                  -3.585
REMARK UNBOUND:                -3.093
REMARK  Name = lig_assembled_80.pdb
REMARK  16 active torsions:
REMARK  status: ('A' for Active; 'I' for Inactive)
REMARK    1  A    between atoms: _2  and  _10
REMARK    2  A    between atoms: _5  and  _24
REMARK    3  A    between atoms: _7  and  _8
REMARK    4  A    between atoms: _7  and  _24
REMARK    5  A    between atoms: _20  and  _40
REMARK    6  A    between atoms: _22  and  _28
REMARK    7  A    between atoms: _23  and  _27
REMARK    8  A    between atoms: _27  and  _28
REMARK    9  A    between atoms: _30  and  _31
REMARK   10  A    between atoms: _32  and  _33
REMARK   11  A    between atoms: _34  and  _36
REMARK   12  A    between atoms: _36  and  _37
REMARK   13  A    between atoms: _36  and  _38
REMARK   14  A    between atoms: _38  and  _39
REMARK   15  A    between atoms: _38  and  _40
REMARK   16  A    between atoms: _41  and  _43
REMARK                            x       y       z     vdW  Elec       q    Type
REMARK                         _______ _______ _______ _____ _____    ______ ____
ROOT
ATOM      1  C   UNL     1      -1.935   9.202  27.921  0.00  0.00    +0.141 C 
ENDROOT
BRANCH   1   4
ATOM      2  C   UNL     1      -3.154   8.706  30.012  0.00  0.00    +0.401 C 
ATOM      3  O   UNL     1      -3.259   7.500  29.776  0.00  0.00    -0.226 OA
ATOM      4  N   UNL     1      -2.556   9.576  29.198  0.00  0.00    -0.279 N 
ATOM      5  H   UNL     1      -2.529  10.547  29.474  0.00  0.00    +0.152 HD
BRANCH   2   6
ATOM      6  O   UNL     1      -3.704   9.226  31.226  0.00  0.00    -0.444 OA
BRANCH   6   7
ATOM      7  C   UNL     1      -2.705   9.981  31.917  0.00  0.00    +0.292 C 
BRANCH   7   9
ATOM      8  N   UNL     1      -3.396  11.451  33.770  0.00  0.00    -0.131 NA
ATOM      9  C   UNL     1      -3.275  11.246  32.423  0.00  0.00    +0.120 A 
ATOM     10  C   UNL     1      -3.740  12.352  31.746  0.00  0.00    +0.138 A 
ATOM     11  N   UNL     1      -4.186  13.179  32.742  0.00  0.00    -0.239 N 
ATOM     12  N   UNL     1      -3.941  12.645  33.959  0.00  0.00    -0.065 NA
BRANCH  11  13
ATOM     13  C   UNL     1      -4.693  14.554  32.664  0.00  0.00    +0.195 C 
ATOM     14  C   UNL     1      -3.765  15.359  31.766  0.00  0.00    +0.041 C 
ATOM     15  C   UNL     1      -4.056  16.842  31.871  0.00  0.00    +0.039 C 
ATOM     16  C   UNL     1      -5.167  17.208  30.936  0.00  0.00    -0.026 A 
ATOM     17  C   UNL     1      -6.466  16.718  31.084  0.00  0.00    +0.037 A 
ATOM     18  C   UNL     1      -7.481  17.203  30.242  0.00  0.00    +0.023 A 
ATOM     19  C   UNL     1      -7.192  18.071  29.191  0.00  0.00    +0.002 A 
ATOM     20  C   UNL     1      -5.887  18.501  28.996  0.00  0.00    +0.000 A 
ATOM     21  N   UNL     1      -6.861  15.696  31.964  0.00  0.00    -0.284 N 
ATOM     22  H   UNL     1      -7.855  15.488  31.954  0.00  0.00    +0.155 HD
ATOM     23  C   UNL     1      -4.887  18.094  29.878  0.00  0.00    +0.005 A 
ATOM     24  C   UNL     1      -6.188  14.578  32.365  0.00  0.00    +0.242 C 
ATOM     25  O   UNL     1      -6.906  13.594  32.581  0.00  0.00    -0.273 OA
ENDBRANCH  11  13
ENDBRANCH   7   9
ENDBRANCH   6   7
ENDBRANCH   2   6
ENDBRANCH   1   4
BRANCH   1  26
ATOM     26  C   UNL     1      -2.308  10.168  26.802  0.00  0.00    +0.163 C 
BRANCH  26  27
ATOM     27  O   UNL     1      -2.641   9.437  25.611  0.00  0.00    -0.388 OA
ATOM     28  H   UNL     1      -2.512   9.999  24.843  0.00  0.00    +0.210 HD
ENDBRANCH  26  27
BRANCH  26  29
ATOM     29  C   UNL     1      -3.486  11.048  27.255  0.00  0.00    +0.175 C 
BRANCH  29  30
ATOM     30  C   UNL     1      -4.314  11.560  26.067  0.00  0.00    +0.176 C 
ATOM     31  O   UNL     1      -3.394  12.101  25.080  0.00  0.00    -0.332 OA
ATOM     32  C   UNL     1      -4.002  12.545  23.822  0.00  0.00    +0.277 C 
ATOM     33  C   UNL     1      -5.133  13.566  24.098  0.00  0.00    +0.110 C 
ATOM     34  C   UNL     1      -6.120  13.048  25.166  0.00  0.00    +0.143 C 
ATOM     35  C   UNL     1      -5.380  12.611  26.431  0.00  0.00    +0.133 C 
BRANCH  35  36
ATOM     36  N   UNL     1      -6.321  12.039  27.406  0.00  0.00    -0.308 N 
ATOM     37  H   UNL     1      -6.780  11.171  27.166  0.00  0.00    +0.149 HD
ATOM     38  C   UNL     1      -6.609  12.591  28.588  0.00  0.00    +0.210 C 
ATOM     39  C   UNL     1      -5.913  13.926  28.913  0.00  0.00    +0.109 C 
ATOM     40  O   UNL     1      -7.391  12.081  29.392  0.00  0.00    -0.276 OA
ENDBRANCH  35  36
BRANCH  32  41
ATOM     41  C   UNL     1      -4.571  11.345  23.037  0.00  0.00    +0.414 C 
ATOM     42  O   UNL     1      -5.520  11.500  22.269  0.00  0.00    -0.240 OA
ATOM     43  O   UNL     1      -4.082  10.222  23.172  0.00  0.00    -0.240 OA
ENDBRANCH  32  41
BRANCH  34  44
ATOM     44  O   UNL     1      -7.054  14.076  25.498  0.00  0.00    -0.390 OA
ATOM     45  H   UNL     1      -7.948  13.737  25.412  0.00  0.00    +0.210 HD
ENDBRANCH  34  44
BRANCH  32  46
ATOM     46  O   UNL     1      -2.976  13.201  23.034  0.00  0.00    -0.343 OA
ATOM     47  C   UNL     1      -3.389  14.436  22.397  0.00  0.00    +0.198 C 
ENDBRANCH  32  46
ENDBRANCH  29  30
BRANCH  29  48
ATOM     48  O   UNL     1      -3.004  12.158  28.040  0.00  0.00    -0.387 OA
ATOM     49  H   UNL     1      -2.699  12.855  27.455  0.00  0.00    +0.210 HD
ENDBRANCH  29  48
ENDBRANCH  26  29
ENDBRANCH   1  26
TORSDOF 14
