REMARK VINA RESULT:    -3.839      2.702      7.611
REMARK INTER + INTRA:         -11.001
REMARK INTER:                  -7.599
REMARK INTRA:                  -3.402
REMARK UNBOUND:                -3.458
REMARK  Name = lig_assembled_43.pdb
REMARK  20 active torsions:
REMARK  status: ('A' for Active; 'I' for Inactive)
REMARK    1  A    between atoms: _2  and  _9
REMARK    2  A    between atoms: _4  and  _18
REMARK    3  A    between atoms: _6  and  _7
REMARK    4  A    between atoms: _6  and  _18
REMARK    5  A    between atoms: _9  and  _10
REMARK    6  A    between atoms: _10  and  _11
REMARK    7  A    between atoms: _11  and  _12
REMARK    8  A    between atoms: _12  and  _13
REMARK    9  A    between atoms: _14  and  _34
REMARK   10  A    between atoms: _16  and  _22
REMARK   11  A    between atoms: _17  and  _21
REMARK   12  A    between atoms: _21  and  _22
REMARK   13  A    between atoms: _24  and  _25
REMARK   14  A    between atoms: _26  and  _27
REMARK   15  A    between atoms: _28  and  _30
REMARK   16  A    between atoms: _30  and  _31
REMARK   17  A    between atoms: _30  and  _32
REMARK   18  A    between atoms: _32  and  _33
REMARK   19  A    between atoms: _32  and  _34
REMARK   20  A    between atoms: _35  and  _37
REMARK                            x       y       z     vdW  Elec       q    Type
REMARK                         _______ _______ _______ _____ _____    ______ ____
ROOT
ATOM      1  C   UNL     1      -2.894   8.768  27.326  0.00  0.00    +0.163 C 
ENDROOT
BRANCH   1   2
ATOM      2  O   UNL     1      -1.782   8.428  26.482  0.00  0.00    -0.388 OA
ATOM      3  H   UNL     1      -2.103   7.996  25.687  0.00  0.00    +0.210 HD
ENDBRANCH   1   2
BRANCH   1   4
ATOM      4  C   UNL     1      -4.229   8.435  26.638  0.00  0.00    +0.175 C 
BRANCH   4   5
ATOM      5  C   UNL     1      -4.670   9.540  25.667  0.00  0.00    +0.176 C 
ATOM      6  O   UNL     1      -3.832   9.455  24.482  0.00  0.00    -0.332 OA
ATOM      7  C   UNL     1      -4.180  10.372  23.392  0.00  0.00    +0.277 C 
ATOM      8  C   UNL     1      -4.215  11.833  23.905  0.00  0.00    +0.110 C 
ATOM      9  C   UNL     1      -5.069  11.967  25.183  0.00  0.00    +0.143 C 
ATOM     10  C   UNL     1      -4.624  10.965  26.249  0.00  0.00    +0.133 C 
BRANCH  10  11
ATOM     11  N   UNL     1      -5.501  11.043  27.428  0.00  0.00    -0.308 N 
ATOM     12  H   UNL     1      -6.436  10.671  27.345  0.00  0.00    +0.149 HD
ATOM     13  C   UNL     1      -5.141  11.574  28.600  0.00  0.00    +0.210 C 
ATOM     14  C   UNL     1      -3.717  12.156  28.685  0.00  0.00    +0.109 C 
ATOM     15  O   UNL     1      -5.891  11.613  29.575  0.00  0.00    -0.276 OA
ENDBRANCH  10  11
BRANCH   7  16
ATOM     16  C   UNL     1      -5.550  10.005  22.785  0.00  0.00    +0.414 C 
ATOM     17  O   UNL     1      -6.339  10.890  22.456  0.00  0.00    -0.240 OA
ATOM     18  O   UNL     1      -5.865   8.826  22.624  0.00  0.00    -0.240 OA
ENDBRANCH   7  16
BRANCH   9  19
ATOM     19  O   UNL     1      -4.952  13.292  25.704  0.00  0.00    -0.390 OA
ATOM     20  H   UNL     1      -5.682  13.828  25.385  0.00  0.00    +0.210 HD
ENDBRANCH   9  19
BRANCH   7  21
ATOM     21  O   UNL     1      -3.151  10.269  22.374  0.00  0.00    -0.343 OA
ATOM     22  C   UNL     1      -3.046  11.416  21.492  0.00  0.00    +0.198 C 
ENDBRANCH   7  21
ENDBRANCH   4   5
BRANCH   4  23
ATOM     23  O   UNL     1      -5.253   8.204  27.626  0.00  0.00    -0.387 OA
ATOM     24  H   UNL     1      -4.991   8.606  28.458  0.00  0.00    +0.210 HD
ENDBRANCH   4  23
ENDBRANCH   1   4
BRANCH   1  25
ATOM     25  C   UNL     1      -2.797   8.011  28.646  0.00  0.00    +0.141 C 
BRANCH  25  28
ATOM     26  C   UNL     1      -4.005   8.820  30.644  0.00  0.00    +0.401 C 
ATOM     27  O   UNL     1      -4.922   8.003  30.536  0.00  0.00    -0.226 OA
ATOM     28  N   UNL     1      -2.974   8.899  29.801  0.00  0.00    -0.279 N 
ATOM     29  H   UNL     1      -2.276   9.610  29.967  0.00  0.00    +0.152 HD
BRANCH  26  30
ATOM     30  O   UNL     1      -4.029   9.753  31.728  0.00  0.00    -0.444 OA
BRANCH  30  31
ATOM     31  C   UNL     1      -2.740  10.357  31.867  0.00  0.00    +0.292 C 
BRANCH  31  33
ATOM     32  N   UNL     1      -1.773  12.585  32.349  0.00  0.00    -0.131 NA
ATOM     33  C   UNL     1      -2.877  11.782  32.217  0.00  0.00    +0.120 A 
ATOM     34  C   UNL     1      -4.007  12.529  32.464  0.00  0.00    +0.137 A 
ATOM     35  N   UNL     1      -3.523  13.771  32.745  0.00  0.00    -0.251 N 
ATOM     36  N   UNL     1      -2.183  13.803  32.674  0.00  0.00    -0.065 NA
BRANCH  35  37
ATOM     37  C   UNL     1      -4.267  14.955  33.118  0.00  0.00    +0.145 C 
BRANCH  37  38
ATOM     38  C   UNL     1      -3.877  16.154  32.260  0.00  0.00    +0.024 C 
BRANCH  38  39
ATOM     39  C   UNL     1      -4.148  15.910  30.773  0.00  0.00    +0.006 C 
BRANCH  39  40
ATOM     40  C   UNL     1      -5.623  16.157  30.449  0.00  0.00    +0.026 C 
BRANCH  40  41
ATOM     41  C   UNL     1      -6.207  15.056  29.614  0.00  0.00    -0.034 C 
ATOM     42  C   UNL     1      -6.327  15.115  28.281  0.00  0.00    +0.004 C 
ENDBRANCH  40  41
ENDBRANCH  39  40
ENDBRANCH  38  39
ENDBRANCH  37  38
ENDBRANCH  35  37
ENDBRANCH  31  33
ENDBRANCH  30  31
ENDBRANCH  26  30
ENDBRANCH  25  28
ENDBRANCH   1  25
TORSDOF 18
