REMARK VINA RESULT:    -3.734      2.976      8.506
REMARK INTER + INTRA:         -10.794
REMARK INTER:                  -7.892
REMARK INTRA:                  -2.902
REMARK UNBOUND:                -3.458
REMARK  Name = lig_assembled_43.pdb
REMARK  20 active torsions:
REMARK  status: ('A' for Active; 'I' for Inactive)
REMARK    1  A    between atoms: _2  and  _9
REMARK    2  A    between atoms: _4  and  _18
REMARK    3  A    between atoms: _6  and  _7
REMARK    4  A    between atoms: _6  and  _18
REMARK    5  A    between atoms: _9  and  _10
REMARK    6  A    between atoms: _10  and  _11
REMARK    7  A    between atoms: _11  and  _12
REMARK    8  A    between atoms: _12  and  _13
REMARK    9  A    between atoms: _14  and  _34
REMARK   10  A    between atoms: _16  and  _22
REMARK   11  A    between atoms: _17  and  _21
REMARK   12  A    between atoms: _21  and  _22
REMARK   13  A    between atoms: _24  and  _25
REMARK   14  A    between atoms: _26  and  _27
REMARK   15  A    between atoms: _28  and  _30
REMARK   16  A    between atoms: _30  and  _31
REMARK   17  A    between atoms: _30  and  _32
REMARK   18  A    between atoms: _32  and  _33
REMARK   19  A    between atoms: _32  and  _34
REMARK   20  A    between atoms: _35  and  _37
REMARK                            x       y       z     vdW  Elec       q    Type
REMARK                         _______ _______ _______ _____ _____    ______ ____
ROOT
ATOM      1  C   UNL     1      -4.060   9.133  23.637  0.00  0.00    +0.163 C 
ENDROOT
BRANCH   1   2
ATOM      2  O   UNL     1      -3.384   8.984  22.378  0.00  0.00    -0.388 OA
ATOM      3  H   UNL     1      -2.474   9.279  22.466  0.00  0.00    +0.210 HD
ENDBRANCH   1   2
BRANCH   1   4
ATOM      4  C   UNL     1      -5.498   9.641  23.432  0.00  0.00    +0.175 C 
BRANCH   4   5
ATOM      5  C   UNL     1      -5.532  11.045  22.812  0.00  0.00    +0.176 C 
ATOM      6  O   UNL     1      -5.173  10.923  21.408  0.00  0.00    -0.332 OA
ATOM      7  C   UNL     1      -5.255  12.159  20.623  0.00  0.00    +0.277 C 
ATOM      8  C   UNL     1      -4.413  13.277  21.284  0.00  0.00    +0.110 C 
ATOM      9  C   UNL     1      -4.737  13.423  22.786  0.00  0.00    +0.143 C 
ATOM     10  C   UNL     1      -4.624  12.078  23.505  0.00  0.00    +0.133 C 
BRANCH  10  11
ATOM     11  N   UNL     1      -5.020  12.213  24.916  0.00  0.00    -0.308 N 
ATOM     12  H   UNL     1      -5.997  12.369  25.118  0.00  0.00    +0.149 HD
ATOM     13  C   UNL     1      -4.172  12.142  25.945  0.00  0.00    +0.210 C 
ATOM     14  C   UNL     1      -2.686  11.929  25.602  0.00  0.00    +0.109 C 
ATOM     15  O   UNL     1      -4.534  12.244  27.118  0.00  0.00    -0.276 OA
ENDBRANCH  10  11
BRANCH   7  16
ATOM     16  C   UNL     1      -6.720  12.626  20.492  0.00  0.00    +0.414 C 
ATOM     17  O   UNL     1      -6.980  13.822  20.365  0.00  0.00    -0.240 OA
ATOM     18  O   UNL     1      -7.640  11.808  20.512  0.00  0.00    -0.240 OA
ENDBRANCH   7  16
BRANCH   9  19
ATOM     19  O   UNL     1      -3.836  14.354  23.386  0.00  0.00    -0.390 OA
ATOM     20  H   UNL     1      -3.041  14.420  22.852  0.00  0.00    +0.210 HD
ENDBRANCH   9  19
BRANCH   7  21
ATOM     21  O   UNL     1      -4.708  11.891  19.307  0.00  0.00    -0.343 OA
ATOM     22  C   UNL     1      -4.807  10.512  18.871  0.00  0.00    +0.198 C 
ENDBRANCH   7  21
ENDBRANCH   4   5
BRANCH   4  23
ATOM     23  O   UNL     1      -6.210   9.633  24.685  0.00  0.00    -0.387 OA
ATOM     24  H   UNL     1      -6.629  10.486  24.821  0.00  0.00    +0.210 HD
ENDBRANCH   4  23
ENDBRANCH   1   4
BRANCH   1  25
ATOM     25  C   UNL     1      -4.091   7.799  24.375  0.00  0.00    +0.141 C 
BRANCH  25  28
ATOM     26  C   UNL     1      -3.177   8.174  26.639  0.00  0.00    +0.401 C 
ATOM     27  O   UNL     1      -2.004   8.214  26.262  0.00  0.00    -0.226 OA
ATOM     28  N   UNL     1      -4.216   7.978  25.826  0.00  0.00    -0.279 N 
ATOM     29  H   UNL     1      -5.141   7.952  26.232  0.00  0.00    +0.152 HD
BRANCH  26  30
ATOM     30  O   UNL     1      -3.465   8.342  28.030  0.00  0.00    -0.444 OA
BRANCH  30  31
ATOM     31  C   UNL     1      -2.744   9.469  28.535  0.00  0.00    +0.292 C 
BRANCH  31  33
ATOM     32  N   UNL     1      -4.745   9.962  29.906  0.00  0.00    -0.131 NA
ATOM     33  C   UNL     1      -3.382   9.979  29.762  0.00  0.00    +0.120 A 
ATOM     34  C   UNL     1      -2.817  10.525  30.892  0.00  0.00    +0.137 A 
ATOM     35  N   UNL     1      -3.888  10.822  31.680  0.00  0.00    -0.251 N 
ATOM     36  N   UNL     1      -5.044  10.483  31.088  0.00  0.00    -0.065 NA
BRANCH  35  37
ATOM     37  C   UNL     1      -3.889  11.456  32.982  0.00  0.00    +0.145 C 
BRANCH  37  38
ATOM     38  C   UNL     1      -2.886  12.603  33.047  0.00  0.00    +0.024 C 
BRANCH  38  39
ATOM     39  C   UNL     1      -3.512  13.938  32.637  0.00  0.00    +0.006 C 
BRANCH  39  40
ATOM     40  C   UNL     1      -3.079  14.321  31.219  0.00  0.00    +0.026 C 
BRANCH  40  41
ATOM     41  C   UNL     1      -4.177  14.109  30.220  0.00  0.00    -0.034 C 
ATOM     42  C   UNL     1      -5.469  13.975  30.548  0.00  0.00    +0.004 C 
ENDBRANCH  40  41
ENDBRANCH  39  40
ENDBRANCH  38  39
ENDBRANCH  37  38
ENDBRANCH  35  37
ENDBRANCH  31  33
ENDBRANCH  30  31
ENDBRANCH  26  30
ENDBRANCH  25  28
ENDBRANCH   1  25
TORSDOF 18
