REMARK VINA RESULT:    -4.365      3.523      6.418
REMARK INTER + INTRA:         -12.019
REMARK INTER:                  -9.053
REMARK INTRA:                  -2.966
REMARK UNBOUND:                -3.062
REMARK  Name = lig_assembled_74.pdb
REMARK  24 active torsions:
REMARK  status: ('A' for Active; 'I' for Inactive)
REMARK    1  A    between atoms: _2  and  _9
REMARK    2  A    between atoms: _4  and  _22
REMARK    3  A    between atoms: _5  and  _14
REMARK    4  A    between atoms: _6  and  _7
REMARK    5  A    between atoms: _6  and  _22
REMARK    6  A    between atoms: _9  and  _10
REMARK    7  A    between atoms: _10  and  _11
REMARK    8  A    between atoms: _10  and  _13
REMARK    9  A    between atoms: _11  and  _12
REMARK   10  A    between atoms: _12  and  _16
REMARK   11  A    between atoms: _13  and  _14
REMARK   12  A    between atoms: _14  and  _15
REMARK   13  A    between atoms: _18  and  _38
REMARK   14  A    between atoms: _20  and  _26
REMARK   15  A    between atoms: _21  and  _25
REMARK   16  A    between atoms: _25  and  _26
REMARK   17  A    between atoms: _28  and  _29
REMARK   18  A    between atoms: _30  and  _31
REMARK   19  A    between atoms: _32  and  _34
REMARK   20  A    between atoms: _34  and  _35
REMARK   21  A    between atoms: _34  and  _36
REMARK   22  A    between atoms: _36  and  _37
REMARK   23  A    between atoms: _36  and  _38
REMARK   24  A    between atoms: _39  and  _41
REMARK                            x       y       z     vdW  Elec       q    Type
REMARK                         _______ _______ _______ _____ _____    ______ ____
ROOT
ATOM      1  C   UNL     1      -6.445   9.390  23.474  0.00  0.00    +0.163 C 
ENDROOT
BRANCH   1   2
ATOM      2  O   UNL     1      -6.985   9.522  24.799  0.00  0.00    -0.388 OA
ATOM      3  H   UNL     1      -6.266   9.585  25.433  0.00  0.00    +0.210 HD
ENDBRANCH   1   2
BRANCH   1   4
ATOM      4  C   UNL     1      -5.094   8.654  23.501  0.00  0.00    +0.175 C 
BRANCH   4   5
ATOM      5  C   UNL     1      -4.008   9.466  24.221  0.00  0.00    +0.176 C 
ATOM      6  O   UNL     1      -4.333   9.490  25.638  0.00  0.00    -0.332 OA
ATOM      7  C   UNL     1      -3.343  10.136  26.505  0.00  0.00    +0.277 C 
ATOM      8  C   UNL     1      -3.048  11.574  26.011  0.00  0.00    +0.110 C 
ATOM      9  C   UNL     1      -2.728  11.603  24.502  0.00  0.00    +0.143 C 
ATOM     10  C   UNL     1      -3.821  10.901  23.695  0.00  0.00    +0.133 C 
BRANCH  10  11
ATOM     11  N   UNL     1      -3.462  10.859  22.269  0.00  0.00    -0.308 N 
ATOM     12  H   UNL     1      -2.683  10.276  21.996  0.00  0.00    +0.149 HD
ATOM     13  C   UNL     1      -4.098  11.540  21.312  0.00  0.00    +0.210 C 
ATOM     14  C   UNL     1      -5.264  12.438  21.765  0.00  0.00    +0.109 C 
ATOM     15  O   UNL     1      -3.784  11.474  20.123  0.00  0.00    -0.276 OA
ENDBRANCH  10  11
BRANCH   7  16
ATOM     16  C   UNL     1      -2.032   9.324  26.539  0.00  0.00    +0.414 C 
ATOM     17  O   UNL     1      -0.947   9.900  26.605  0.00  0.00    -0.240 OA
ATOM     18  O   UNL     1      -2.060   8.093  26.501  0.00  0.00    -0.240 OA
ENDBRANCH   7  16
BRANCH   9  19
ATOM     19  O   UNL     1      -2.612  12.956  24.060  0.00  0.00    -0.390 OA
ATOM     20  H   UNL     1      -3.205  13.512  24.571  0.00  0.00    +0.210 HD
ENDBRANCH   9  19
BRANCH   7  21
ATOM     21  O   UNL     1      -3.902  10.218  27.842  0.00  0.00    -0.343 OA
ATOM     22  C   UNL     1      -4.072  11.564  28.353  0.00  0.00    +0.198 C 
ENDBRANCH   7  21
ENDBRANCH   4   5
BRANCH   4  23
ATOM     23  O   UNL     1      -4.673   8.341  22.159  0.00  0.00    -0.387 OA
ATOM     24  H   UNL     1      -3.807   8.723  21.997  0.00  0.00    +0.210 HD
ENDBRANCH   4  23
ENDBRANCH   1   4
BRANCH   1  25
ATOM     25  C   UNL     1      -7.423   8.628  22.586  0.00  0.00    +0.141 C 
BRANCH  25  28
ATOM     26  C   UNL     1      -7.422   9.215  20.186  0.00  0.00    +0.401 C 
ATOM     27  O   UNL     1      -6.616   8.335  19.875  0.00  0.00    -0.226 OA
ATOM     28  N   UNL     1      -7.850   9.427  21.431  0.00  0.00    -0.279 N 
ATOM     29  H   UNL     1      -8.505  10.180  21.588  0.00  0.00    +0.152 HD
BRANCH  26  30
ATOM     30  O   UNL     1      -7.940  10.074  19.167  0.00  0.00    -0.444 OA
BRANCH  30  31
ATOM     31  C   UNL     1      -6.977  11.087  18.862  0.00  0.00    +0.292 C 
BRANCH  31  33
ATOM     32  N   UNL     1      -6.620  12.275  16.711  0.00  0.00    -0.131 NA
ATOM     33  C   UNL     1      -6.676  11.103  17.417  0.00  0.00    +0.120 A 
ATOM     34  C   UNL     1      -6.332  10.060  16.584  0.00  0.00    +0.137 A 
ATOM     35  N   UNL     1      -5.905  10.686  15.447  0.00  0.00    -0.251 N 
ATOM     36  N   UNL     1      -6.170  12.004  15.494  0.00  0.00    -0.065 NA
BRANCH  35  37
ATOM     37  C   UNL     1      -4.976  10.164  14.463  0.00  0.00    +0.149 C 
BRANCH  37  38
ATOM     38  C   UNL     1      -3.508  10.613  14.629  0.00  0.00    +0.021 C 
BRANCH  38  39
ATOM     39  C   UNL     1      -2.855  11.075  13.310  0.00  0.00    +0.125 C 
BRANCH  39  40
ATOM     40  C   UNL     1      -2.965  12.560  13.033  0.00  0.00    +0.305 C 
ATOM     41  O   UNL     1      -4.002  13.146  12.764  0.00  0.00    -0.251 OA
BRANCH  40  42
ATOM     42  O   UNL     1      -1.796  13.210  13.179  0.00  0.00    -0.481 OA
ATOM     43  H   UNL     1      -1.102  12.975  12.536  0.00  0.00    +0.295 HD
ENDBRANCH  40  42
ENDBRANCH  39  40
ENDBRANCH  38  39
BRANCH  38  44
ATOM     44  C   UNL     1      -2.708   9.483  15.342  0.00  0.00    +0.009 C 
BRANCH  44  45
ATOM     45  C   UNL     1      -3.015   8.044  14.879  0.00  0.00    -0.017 C 
ATOM     46  C   UNL     1      -1.840   7.416  14.125  0.00  0.00    +0.007 C 
ATOM     47  C   UNL     1      -3.370   7.157  16.077  0.00  0.00    +0.007 C 
ENDBRANCH  44  45
ENDBRANCH  38  44
ENDBRANCH  37  38
ENDBRANCH  35  37
ENDBRANCH  31  33
ENDBRANCH  30  31
ENDBRANCH  26  30
ENDBRANCH  25  28
ENDBRANCH   1  25
TORSDOF 20
