REMARK VINA RESULT:    -4.880      2.260      5.847
REMARK INTER + INTRA:         -13.096
REMARK INTER:                  -8.577
REMARK INTRA:                  -4.519
REMARK UNBOUND:                -3.793
REMARK  Name = lig_assembled_21.pdb
REMARK  20 active torsions:
REMARK  status: ('A' for Active; 'I' for Inactive)
REMARK    1  A    between atoms: _2  and  _9
REMARK    2  A    between atoms: _4  and  _23
REMARK    3  A    between atoms: _6  and  _7
REMARK    4  A    between atoms: _6  and  _23
REMARK    5  A    between atoms: _9  and  _10
REMARK    6  A    between atoms: _11  and  _18
REMARK    7  A    between atoms: _12  and  _13
REMARK    8  A    between atoms: _12  and  _18
REMARK    9  A    between atoms: _19  and  _39
REMARK   10  A    between atoms: _21  and  _27
REMARK   11  A    between atoms: _22  and  _26
REMARK   12  A    between atoms: _26  and  _27
REMARK   13  A    between atoms: _29  and  _30
REMARK   14  A    between atoms: _31  and  _32
REMARK   15  A    between atoms: _33  and  _35
REMARK   16  A    between atoms: _35  and  _36
REMARK   17  A    between atoms: _35  and  _37
REMARK   18  A    between atoms: _37  and  _38
REMARK   19  A    between atoms: _37  and  _39
REMARK   20  A    between atoms: _40  and  _42
REMARK                            x       y       z     vdW  Elec       q    Type
REMARK                         _______ _______ _______ _____ _____    ______ ____
ROOT
ATOM      1  C   UNL     1      -4.238  12.709  25.689  0.00  0.00    +0.163 C 
ENDROOT
BRANCH   1   2
ATOM      2  O   UNL     1      -4.975  13.425  24.684  0.00  0.00    -0.388 OA
ATOM      3  H   UNL     1      -5.467  14.139  25.095  0.00  0.00    +0.210 HD
ENDBRANCH   1   2
BRANCH   1   4
ATOM      4  C   UNL     1      -5.058  11.526  26.234  0.00  0.00    +0.175 C 
BRANCH   4   5
ATOM      5  C   UNL     1      -4.254  10.676  27.229  0.00  0.00    +0.176 C 
ATOM      6  O   UNL     1      -4.476   9.276  26.902  0.00  0.00    -0.332 OA
ATOM      7  C   UNL     1      -3.700   8.312  27.687  0.00  0.00    +0.277 C 
ATOM      8  C   UNL     1      -3.928   8.538  29.202  0.00  0.00    +0.110 C 
ATOM      9  C   UNL     1      -3.734  10.019  29.591  0.00  0.00    +0.143 C 
ATOM     10  C   UNL     1      -4.585  10.934  28.711  0.00  0.00    +0.133 C 
BRANCH  10  11
ATOM     11  N   UNL     1      -4.326  12.346  29.033  0.00  0.00    -0.308 N 
ATOM     12  H   UNL     1      -3.406  12.715  28.834  0.00  0.00    +0.149 HD
ATOM     13  C   UNL     1      -5.226  13.173  29.572  0.00  0.00    +0.210 C 
ATOM     14  C   UNL     1      -6.610  12.574  29.887  0.00  0.00    +0.109 C 
ATOM     15  O   UNL     1      -4.986  14.355  29.818  0.00  0.00    -0.276 OA
ENDBRANCH  10  11
BRANCH   7  16
ATOM     16  C   UNL     1      -2.196   8.432  27.368  0.00  0.00    +0.414 C 
ATOM     17  O   UNL     1      -1.361   8.326  28.266  0.00  0.00    -0.240 OA
ATOM     18  O   UNL     1      -1.816   8.634  26.214  0.00  0.00    -0.240 OA
ENDBRANCH   7  16
BRANCH   9  19
ATOM     19  O   UNL     1      -4.099  10.209  30.959  0.00  0.00    -0.390 OA
ATOM     20  H   UNL     1      -4.665   9.487  31.243  0.00  0.00    +0.210 HD
ENDBRANCH   9  19
BRANCH   7  21
ATOM     21  O   UNL     1      -4.166   6.980  27.349  0.00  0.00    -0.343 OA
ATOM     22  C   UNL     1      -5.083   6.918  26.227  0.00  0.00    +0.198 C 
ENDBRANCH   7  21
ENDBRANCH   4   5
BRANCH   4  23
ATOM     23  O   UNL     1      -5.528  10.706  25.146  0.00  0.00    -0.387 OA
ATOM     24  H   UNL     1      -5.755  11.264  24.398  0.00  0.00    +0.210 HD
ENDBRANCH   4  23
ENDBRANCH   1   4
BRANCH   1  25
ATOM     25  C   UNL     1      -2.926  12.194  25.107  0.00  0.00    +0.141 C 
BRANCH  25  28
ATOM     26  C   UNL     1      -3.061  11.135  22.879  0.00  0.00    +0.401 C 
ATOM     27  O   UNL     1      -3.182   9.992  23.326  0.00  0.00    -0.226 OA
ATOM     28  N   UNL     1      -2.929  12.223  23.640  0.00  0.00    -0.279 N 
ATOM     29  H   UNL     1      -2.826  13.117  23.180  0.00  0.00    +0.152 HD
BRANCH  26  30
ATOM     30  O   UNL     1      -3.054  11.330  21.463  0.00  0.00    -0.444 OA
BRANCH  30  31
ATOM     31  C   UNL     1      -4.270  10.825  20.905  0.00  0.00    +0.292 C 
BRANCH  31  33
ATOM     32  N   UNL     1      -6.089  11.360  22.490  0.00  0.00    -0.131 NA
ATOM     33  C   UNL     1      -5.411  11.651  21.338  0.00  0.00    +0.120 A 
ATOM     34  C   UNL     1      -5.958  12.780  20.769  0.00  0.00    +0.137 A 
ATOM     35  N   UNL     1      -6.906  13.181  21.671  0.00  0.00    -0.247 N 
ATOM     36  N   UNL     1      -7.001  12.300  22.683  0.00  0.00    -0.065 NA
BRANCH  35  37
ATOM     37  C   UNL     1      -7.659  14.430  21.624  0.00  0.00    +0.184 C 
BRANCH  37  38
ATOM     38  C   UNL     1      -7.494  15.341  22.816  0.00  0.00    +0.016 A 
ATOM     39  C   UNL     1      -6.429  16.256  22.910  0.00  0.00    +0.137 A 
ATOM     40  C   UNL     1      -6.296  17.092  24.019  0.00  0.00    +0.047 A 
ATOM     41  C   UNL     1      -7.240  17.037  25.044  0.00  0.00    +0.004 A 
ATOM     42  C   UNL     1      -8.294  16.128  24.976  0.00  0.00    +0.001 A 
ATOM     43  C   UNL     1      -8.423  15.289  23.869  0.00  0.00    +0.009 A 
BRANCH  39  44
ATOM     44  O   UNL     1      -5.464  16.221  21.875  0.00  0.00    -0.426 OA
BRANCH  44  45
ATOM     45  C   UNL     1      -4.125  15.902  22.107  0.00  0.00    +0.309 C 
ATOM     46  O   UNL     1      -3.674  14.824  22.471  0.00  0.00    -0.251 OA
ATOM     47  C   UNL     1      -3.275  17.089  21.763  0.00  0.00    +0.136 C 
ENDBRANCH  44  45
ENDBRANCH  39  44
ENDBRANCH  37  38
ENDBRANCH  35  37
ENDBRANCH  31  33
ENDBRANCH  30  31
ENDBRANCH  26  30
ENDBRANCH  25  28
ENDBRANCH   1  25
TORSDOF 17
