REMARK VINA RESULT:    -5.038      4.317      7.493
REMARK INTER + INTRA:         -10.717
REMARK INTER:                  -8.669
REMARK INTRA:                  -2.048
REMARK UNBOUND:                -1.997
REMARK  Name = lig_assembled_57.pdb
REMARK  17 active torsions:
REMARK  status: ('A' for Active; 'I' for Inactive)
REMARK    1  A    between atoms: _2  and  _10
REMARK    2  A    between atoms: _3  and  _13
REMARK    3  A    between atoms: _5  and  _19
REMARK    4  A    between atoms: _7  and  _8
REMARK    5  A    between atoms: _7  and  _19
REMARK    6  A    between atoms: _15  and  _35
REMARK    7  A    between atoms: _17  and  _23
REMARK    8  A    between atoms: _18  and  _22
REMARK    9  A    between atoms: _22  and  _23
REMARK   10  A    between atoms: _25  and  _26
REMARK   11  A    between atoms: _27  and  _28
REMARK   12  A    between atoms: _29  and  _31
REMARK   13  A    between atoms: _31  and  _32
REMARK   14  A    between atoms: _31  and  _33
REMARK   15  A    between atoms: _33  and  _34
REMARK   16  A    between atoms: _33  and  _35
REMARK   17  A    between atoms: _36  and  _38
REMARK                            x       y       z     vdW  Elec       q    Type
REMARK                         _______ _______ _______ _____ _____    ______ ____
ROOT
ATOM      1  C   UNL     1      -3.373  12.533  24.148  0.00  0.00    +0.163 C 
ENDROOT
BRANCH   1   2
ATOM      2  O   UNL     1      -2.004  12.869  24.428  0.00  0.00    -0.388 OA
ATOM      3  H   UNL     1      -1.434  12.148  24.152  0.00  0.00    +0.210 HD
ENDBRANCH   1   2
BRANCH   1   4
ATOM      4  C   UNL     1      -3.942  13.489  23.105  0.00  0.00    +0.141 C 
BRANCH   4   7
ATOM      5  C   UNL     1      -5.729  12.620  21.636  0.00  0.00    +0.401 C 
ATOM      6  O   UNL     1      -6.646  13.044  22.342  0.00  0.00    -0.226 OA
ATOM      7  N   UNL     1      -4.435  12.777  21.920  0.00  0.00    -0.279 N 
ATOM      8  H   UNL     1      -3.756  12.384  21.283  0.00  0.00    +0.152 HD
BRANCH   5   9
ATOM      9  O   UNL     1      -6.048  11.908  20.437  0.00  0.00    -0.444 OA
BRANCH   9  10
ATOM     10  C   UNL     1      -4.979  12.053  19.497  0.00  0.00    +0.292 C 
BRANCH  10  12
ATOM     11  N   UNL     1      -4.960   9.592  19.291  0.00  0.00    -0.131 NA
ATOM     12  C   UNL     1      -4.835  10.819  18.703  0.00  0.00    +0.120 A 
ATOM     13  C   UNL     1      -4.601  10.652  17.355  0.00  0.00    +0.137 A 
ATOM     14  N   UNL     1      -4.683   9.304  17.167  0.00  0.00    -0.248 N 
ATOM     15  N   UNL     1      -4.826   8.671  18.350  0.00  0.00    -0.065 NA
BRANCH  14  16
ATOM     16  C   UNL     1      -4.705   8.507  15.946  0.00  0.00    +0.111 C 
ATOM     17  C   UNL     1      -4.025   9.260  14.792  0.00  0.00    +0.042 C 
ATOM     18  C   UNL     1      -2.509   9.261  14.973  0.00  0.00    +0.086 C 
ATOM     19  N   UNL     1      -1.940   7.910  15.032  0.00  0.00    -0.305 NA
ATOM     20  C   UNL     1      -2.572   7.078  16.057  0.00  0.00    +0.086 C 
ATOM     21  C   UNL     1      -1.903   7.266  13.722  0.00  0.00    +0.104 C 
ATOM     22  C   UNL     1      -4.108   7.093  16.047  0.00  0.00    +0.042 C 
ENDBRANCH  14  16
ENDBRANCH  10  12
ENDBRANCH   9  10
ENDBRANCH   5   9
ENDBRANCH   4   7
ENDBRANCH   1   4
BRANCH   1  23
ATOM     23  C   UNL     1      -4.228  12.596  25.425  0.00  0.00    +0.175 C 
BRANCH  23  24
ATOM     24  C   UNL     1      -3.928  11.432  26.380  0.00  0.00    +0.176 C 
ATOM     25  O   UNL     1      -3.662  10.250  25.575  0.00  0.00    -0.332 OA
ATOM     26  C   UNL     1      -3.250   9.056  26.318  0.00  0.00    +0.277 C 
ATOM     27  C   UNL     1      -4.287   8.718  27.417  0.00  0.00    +0.110 C 
ATOM     28  C   UNL     1      -4.625   9.952  28.280  0.00  0.00    +0.143 C 
ATOM     29  C   UNL     1      -5.038  11.137  27.405  0.00  0.00    +0.133 C 
BRANCH  29  30
ATOM     30  N   UNL     1      -5.273  12.331  28.232  0.00  0.00    -0.308 N 
ATOM     31  H   UNL     1      -4.474  12.765  28.672  0.00  0.00    +0.149 HD
ATOM     32  C   UNL     1      -6.474  12.878  28.440  0.00  0.00    +0.210 C 
ATOM     33  C   UNL     1      -7.675  12.177  27.777  0.00  0.00    +0.109 C 
ATOM     34  O   UNL     1      -6.639  13.887  29.126  0.00  0.00    -0.276 OA
ENDBRANCH  29  30
BRANCH  26  35
ATOM     35  C   UNL     1      -1.864   9.264  26.963  0.00  0.00    +0.414 C 
ATOM     36  O   UNL     1      -1.652   8.882  28.113  0.00  0.00    -0.240 OA
ATOM     37  O   UNL     1      -0.959   9.814  26.334  0.00  0.00    -0.240 OA
ENDBRANCH  26  35
BRANCH  28  38
ATOM     38  O   UNL     1      -5.690   9.636  29.177  0.00  0.00    -0.390 OA
ATOM     39  H   UNL     1      -5.425   8.910  29.746  0.00  0.00    +0.210 HD
ENDBRANCH  28  38
BRANCH  26  40
ATOM     40  O   UNL     1      -3.193   7.945  25.387  0.00  0.00    -0.343 OA
ATOM     41  C   UNL     1      -3.496   6.648  25.961  0.00  0.00    +0.198 C 
ENDBRANCH  26  40
ENDBRANCH  23  24
BRANCH  23  42
ATOM     42  O   UNL     1      -5.629  12.611  25.085  0.00  0.00    -0.387 OA
ATOM     43  H   UNL     1      -6.126  12.135  25.754  0.00  0.00    +0.210 HD
ENDBRANCH  23  42
ENDBRANCH   1  23
TORSDOF 14
