REMARK VINA RESULT:    -5.110      3.735      8.540
REMARK INTER + INTRA:         -13.340
REMARK INTER:                  -9.042
REMARK INTRA:                  -4.298
REMARK UNBOUND:                -3.302
REMARK  Name = lig_assembled_84.pdb
REMARK  21 active torsions:
REMARK  status: ('A' for Active; 'I' for Inactive)
REMARK    1  A    between atoms: _2  and  _11
REMARK    2  A    between atoms: _3  and  _14
REMARK    3  A    between atoms: _4  and  _17
REMARK    4  A    between atoms: _6  and  _28
REMARK    5  A    between atoms: _8  and  _9
REMARK    6  A    between atoms: _8  and  _28
REMARK    7  A    between atoms: _11  and  _12
REMARK    8  A    between atoms: _12  and  _13
REMARK    9  A    between atoms: _12  and  _14
REMARK   10  A    between atoms: _24  and  _44
REMARK   11  A    between atoms: _26  and  _32
REMARK   12  A    between atoms: _27  and  _31
REMARK   13  A    between atoms: _31  and  _32
REMARK   14  A    between atoms: _34  and  _35
REMARK   15  A    between atoms: _36  and  _37
REMARK   16  A    between atoms: _38  and  _40
REMARK   17  A    between atoms: _40  and  _41
REMARK   18  A    between atoms: _40  and  _42
REMARK   19  A    between atoms: _42  and  _43
REMARK   20  A    between atoms: _42  and  _44
REMARK   21  A    between atoms: _45  and  _47
REMARK                            x       y       z     vdW  Elec       q    Type
REMARK                         _______ _______ _______ _____ _____    ______ ____
ROOT
ATOM      1  C   UNL     1      -3.975  12.149  33.841  0.00  0.00    +0.401 C 
ATOM      2  O   UNL     1      -5.196  12.318  33.820  0.00  0.00    -0.226 OA
ATOM      3  N   UNL     1      -3.365  11.053  33.388  0.00  0.00    -0.279 N 
ATOM      4  H   UNL     1      -2.357  11.012  33.439  0.00  0.00    +0.152 HD
ENDROOT
BRANCH   1   5
ATOM      5  O   UNL     1      -3.140  13.181  34.374  0.00  0.00    -0.444 OA
BRANCH   5   6
ATOM      6  C   UNL     1      -2.285  13.684  33.344  0.00  0.00    +0.292 C 
BRANCH   6   8
ATOM      7  N   UNL     1      -3.014  16.054  33.287  0.00  0.00    -0.131 NA
ATOM      8  C   UNL     1      -2.907  14.837  32.665  0.00  0.00    +0.120 A 
ATOM      9  C   UNL     1      -3.485  14.918  31.417  0.00  0.00    +0.137 A 
ATOM     10  N   UNL     1      -3.981  16.186  31.367  0.00  0.00    -0.251 N 
ATOM     11  N   UNL     1      -3.677  16.874  32.482  0.00  0.00    -0.065 NA
BRANCH  10  12
ATOM     12  C   UNL     1      -4.860  16.756  30.364  0.00  0.00    +0.149 C 
BRANCH  12  13
ATOM     13  C   UNL     1      -6.011  15.833  29.931  0.00  0.00    +0.021 C 
ATOM     14  C   UNL     1      -6.967  15.549  31.099  0.00  0.00    +0.010 C 
BRANCH  13  15
ATOM     15  C   UNL     1      -6.818  16.451  28.764  0.00  0.00    +0.089 C 
BRANCH  15  16
ATOM     16  N   UNL     1      -7.154  15.534  27.667  0.00  0.00    -0.299 NA
ATOM     17  C   UNL     1      -6.174  14.416  27.620  0.00  0.00    +0.103 C 
ATOM     18  C   UNL     1      -6.539  13.381  26.535  0.00  0.00    +0.120 C 
ATOM     19  N   UNL     1      -6.600  14.041  25.225  0.00  0.00    -0.327 N 
ATOM     20  C   UNL     1      -7.501  15.201  25.174  0.00  0.00    +0.120 C 
ATOM     21  C   UNL     1      -7.171  16.187  26.333  0.00  0.00    +0.103 C 
BRANCH  19  22
ATOM     22  C   UNL     1      -5.915  13.575  24.127  0.00  0.00    +0.030 A 
ATOM     23  C   UNL     1      -4.952  14.368  23.476  0.00  0.00    +0.024 A 
ATOM     24  C   UNL     1      -4.263  13.921  22.343  0.00  0.00    +0.022 A 
ATOM     25  C   UNL     1      -4.521  12.658  21.839  0.00  0.00    +0.041 A 
ATOM     26 CL   UNL     1      -3.682  12.103  20.443  0.00  0.00    -0.084 Cl
ATOM     27  C   UNL     1      -5.463  11.841  22.455  0.00  0.00    +0.022 A 
ATOM     28  C   UNL     1      -6.150  12.303  23.585  0.00  0.00    +0.024 A 
ENDBRANCH  19  22
ENDBRANCH  15  16
ENDBRANCH  13  15
ENDBRANCH  12  13
ENDBRANCH  10  12
ENDBRANCH   6   8
ENDBRANCH   5   6
ENDBRANCH   1   5
BRANCH   3  29
ATOM     29  C   UNL     1      -4.077   9.901  32.820  0.00  0.00    +0.141 C 
BRANCH  29  30
ATOM     30  C   UNL     1      -3.513   9.497  31.462  0.00  0.00    +0.163 C 
BRANCH  30  31
ATOM     31  O   UNL     1      -4.051   8.226  31.065  0.00  0.00    -0.388 OA
ATOM     32  H   UNL     1      -3.351   7.568  31.064  0.00  0.00    +0.210 HD
ENDBRANCH  30  31
BRANCH  30  33
ATOM     33  C   UNL     1      -3.844  10.583  30.424  0.00  0.00    +0.175 C 
BRANCH  33  34
ATOM     34  C   UNL     1      -3.975  10.007  29.006  0.00  0.00    +0.176 C 
ATOM     35  O   UNL     1      -2.984  10.660  28.166  0.00  0.00    -0.332 OA
ATOM     36  C   UNL     1      -2.889  10.158  26.791  0.00  0.00    +0.277 C 
ATOM     37  C   UNL     1      -4.274  10.206  26.101  0.00  0.00    +0.110 C 
ATOM     38  C   UNL     1      -5.367   9.552  26.972  0.00  0.00    +0.143 C 
ATOM     39  C   UNL     1      -5.375  10.146  28.381  0.00  0.00    +0.133 C 
BRANCH  39  40
ATOM     40  N   UNL     1      -6.362   9.455  29.226  0.00  0.00    -0.308 N 
ATOM     41  H   UNL     1      -6.275   8.454  29.330  0.00  0.00    +0.149 HD
ATOM     42  C   UNL     1      -7.364  10.065  29.865  0.00  0.00    +0.210 C 
ATOM     43  C   UNL     1      -7.485  11.587  29.665  0.00  0.00    +0.109 C 
ATOM     44  O   UNL     1      -8.167   9.462  30.578  0.00  0.00    -0.276 OA
ENDBRANCH  39  40
BRANCH  36  45
ATOM     45  C   UNL     1      -2.354   8.711  26.773  0.00  0.00    +0.414 C 
ATOM     46  O   UNL     1      -2.598   7.971  25.821  0.00  0.00    -0.240 OA
ATOM     47  O   UNL     1      -1.677   8.284  27.710  0.00  0.00    -0.240 OA
ENDBRANCH  36  45
BRANCH  36  48
ATOM     48  O   UNL     1      -1.983  11.023  26.059  0.00  0.00    -0.343 OA
ATOM     49  C   UNL     1      -2.613  12.148  25.396  0.00  0.00    +0.198 C 
ENDBRANCH  36  48
BRANCH  38  50
ATOM     50  O   UNL     1      -6.647   9.751  26.370  0.00  0.00    -0.390 OA
ATOM     51  H   UNL     1      -6.627  10.545  25.830  0.00  0.00    +0.210 HD
ENDBRANCH  38  50
ENDBRANCH  33  34
BRANCH  33  52
ATOM     52  O   UNL     1      -2.841  11.618  30.449  0.00  0.00    -0.387 OA
ATOM     53  H   UNL     1      -3.146  12.373  29.942  0.00  0.00    +0.210 HD
ENDBRANCH  33  52
ENDBRANCH  30  33
ENDBRANCH  29  30
ENDBRANCH   3  29
TORSDOF 18
