REMARK VINA RESULT:    -4.868      4.130      8.065
REMARK INTER + INTRA:         -10.422
REMARK INTER:                  -7.637
REMARK INTRA:                  -2.785
REMARK UNBOUND:                -1.997
REMARK  Name = lig_assembled_57.pdb
REMARK  17 active torsions:
REMARK  status: ('A' for Active; 'I' for Inactive)
REMARK    1  A    between atoms: _2  and  _10
REMARK    2  A    between atoms: _3  and  _13
REMARK    3  A    between atoms: _5  and  _19
REMARK    4  A    between atoms: _7  and  _8
REMARK    5  A    between atoms: _7  and  _19
REMARK    6  A    between atoms: _15  and  _35
REMARK    7  A    between atoms: _17  and  _23
REMARK    8  A    between atoms: _18  and  _22
REMARK    9  A    between atoms: _22  and  _23
REMARK   10  A    between atoms: _25  and  _26
REMARK   11  A    between atoms: _27  and  _28
REMARK   12  A    between atoms: _29  and  _31
REMARK   13  A    between atoms: _31  and  _32
REMARK   14  A    between atoms: _31  and  _33
REMARK   15  A    between atoms: _33  and  _34
REMARK   16  A    between atoms: _33  and  _35
REMARK   17  A    between atoms: _36  and  _38
REMARK                            x       y       z     vdW  Elec       q    Type
REMARK                         _______ _______ _______ _____ _____    ______ ____
ROOT
ATOM      1  C   UNL     1      -6.990   8.774  23.411  0.00  0.00    +0.163 C 
ENDROOT
BRANCH   1   2
ATOM      2  O   UNL     1      -6.664   8.963  24.798  0.00  0.00    -0.388 OA
ATOM      3  H   UNL     1      -5.769   9.303  24.874  0.00  0.00    +0.210 HD
ENDBRANCH   1   2
BRANCH   1   4
ATOM      4  C   UNL     1      -6.283   7.533  22.875  0.00  0.00    +0.141 C 
BRANCH   4   7
ATOM      5  C   UNL     1      -3.977   6.666  23.066  0.00  0.00    +0.401 C 
ATOM      6  O   UNL     1      -3.916   6.302  21.890  0.00  0.00    -0.226 OA
ATOM      7  N   UNL     1      -5.046   7.245  23.612  0.00  0.00    -0.279 N 
ATOM      8  H   UNL     1      -5.004   7.501  24.589  0.00  0.00    +0.152 HD
BRANCH   5   9
ATOM      9  O   UNL     1      -2.845   6.462  23.916  0.00  0.00    -0.444 OA
BRANCH   9  10
ATOM     10  C   UNL     1      -3.194   5.558  24.968  0.00  0.00    +0.292 C 
BRANCH  10  12
ATOM     11  N   UNL     1      -1.814   7.059  26.361  0.00  0.00    -0.131 NA
ATOM     12  C   UNL     1      -2.811   6.130  26.272  0.00  0.00    +0.120 A 
ATOM     13  C   UNL     1      -3.330   5.902  27.528  0.00  0.00    +0.137 A 
ATOM     14  N   UNL     1      -2.669   6.787  28.327  0.00  0.00    -0.248 N 
ATOM     15  N   UNL     1      -1.707   7.426  27.628  0.00  0.00    -0.065 NA
BRANCH  14  16
ATOM     16  C   UNL     1      -2.882   7.165  29.720  0.00  0.00    +0.111 C 
ATOM     17  C   UNL     1      -3.025   8.689  29.854  0.00  0.00    +0.042 C 
ATOM     18  C   UNL     1      -4.389   9.145  29.340  0.00  0.00    +0.086 C 
ATOM     19  N   UNL     1      -5.508   8.518  30.052  0.00  0.00    -0.305 NA
ATOM     20  C   UNL     1      -5.427   7.056  30.048  0.00  0.00    +0.086 C 
ATOM     21  C   UNL     1      -5.694   9.072  31.390  0.00  0.00    +0.104 C 
ATOM     22  C   UNL     1      -4.058   6.481  30.437  0.00  0.00    +0.042 C 
ENDBRANCH  14  16
ENDBRANCH  10  12
ENDBRANCH   9  10
ENDBRANCH   5   9
ENDBRANCH   4   7
ENDBRANCH   1   4
BRANCH   1  23
ATOM     23  C   UNL     1      -6.580  10.000  22.577  0.00  0.00    +0.175 C 
BRANCH  23  24
ATOM     24  C   UNL     1      -5.177  10.506  22.944  0.00  0.00    +0.176 C 
ATOM     25  O   UNL     1      -5.309  11.407  24.077  0.00  0.00    -0.332 OA
ATOM     26  C   UNL     1      -4.050  11.910  24.637  0.00  0.00    +0.277 C 
ATOM     27  C   UNL     1      -3.196  12.579  23.532  0.00  0.00    +0.110 C 
ATOM     28  C   UNL     1      -3.055  11.671  22.292  0.00  0.00    +0.143 C 
ATOM     29  C   UNL     1      -4.424  11.203  21.796  0.00  0.00    +0.133 C 
BRANCH  29  30
ATOM     30  N   UNL     1      -4.271  10.269  20.669  0.00  0.00    -0.308 N 
ATOM     31  H   UNL     1      -3.694   9.452  20.809  0.00  0.00    +0.149 HD
ATOM     32  C   UNL     1      -4.846  10.432  19.474  0.00  0.00    +0.210 C 
ATOM     33  C   UNL     1      -5.698  11.701  19.285  0.00  0.00    +0.109 C 
ATOM     34  O   UNL     1      -4.712   9.625  18.553  0.00  0.00    -0.276 OA
ENDBRANCH  29  30
BRANCH  26  35
ATOM     35  C   UNL     1      -3.245  10.766  25.288  0.00  0.00    +0.414 C 
ATOM     36  O   UNL     1      -3.790   9.694  25.548  0.00  0.00    -0.240 OA
ATOM     37  O   UNL     1      -2.052  10.915  25.554  0.00  0.00    -0.240 OA
ENDBRANCH  26  35
BRANCH  28  38
ATOM     38  O   UNL     1      -2.393  12.383  21.246  0.00  0.00    -0.390 OA
ATOM     39  H   UNL     1      -2.680  13.299  21.251  0.00  0.00    +0.210 HD
ENDBRANCH  28  38
BRANCH  26  40
ATOM     40  O   UNL     1      -4.372  12.911  25.636  0.00  0.00    -0.343 OA
ATOM     41  C   UNL     1      -5.750  12.906  26.086  0.00  0.00    +0.198 C 
ENDBRANCH  26  40
ENDBRANCH  23  24
BRANCH  23  42
ATOM     42  O   UNL     1      -7.547  11.056  22.740  0.00  0.00    -0.387 OA
ATOM     43  H   UNL     1      -7.864  11.064  23.646  0.00  0.00    +0.210 HD
ENDBRANCH  23  42
ENDBRANCH   1  23
TORSDOF 14
