REMARK VINA RESULT:    -4.990      1.367      1.609
REMARK INTER + INTRA:         -12.101
REMARK INTER:                  -9.896
REMARK INTRA:                  -2.205
REMARK UNBOUND:                -2.590
REMARK  Name = lig_assembled_29.pdb
REMARK  21 active torsions:
REMARK  status: ('A' for Active; 'I' for Inactive)
REMARK    1  A    between atoms: _2  and  _9
REMARK    2  A    between atoms: _4  and  _23
REMARK    3  A    between atoms: _6  and  _7
REMARK    4  A    between atoms: _6  and  _23
REMARK    5  A    between atoms: _9  and  _10
REMARK    6  A    between atoms: _12  and  _18
REMARK    7  A    between atoms: _13  and  _18
REMARK    8  A    between atoms: _14  and  _17
REMARK    9  A    between atoms: _15  and  _17
REMARK   10  A    between atoms: _19  and  _39
REMARK   11  A    between atoms: _21  and  _27
REMARK   12  A    between atoms: _22  and  _26
REMARK   13  A    between atoms: _26  and  _27
REMARK   14  A    between atoms: _29  and  _30
REMARK   15  A    between atoms: _31  and  _32
REMARK   16  A    between atoms: _33  and  _35
REMARK   17  A    between atoms: _35  and  _36
REMARK   18  A    between atoms: _35  and  _37
REMARK   19  A    between atoms: _37  and  _38
REMARK   20  A    between atoms: _37  and  _39
REMARK   21  A    between atoms: _40  and  _42
REMARK                            x       y       z     vdW  Elec       q    Type
REMARK                         _______ _______ _______ _____ _____    ______ ____
ROOT
ATOM      1  C   UNL     1      -3.811  11.853  25.583  0.00  0.00    +0.163 C 
ENDROOT
BRANCH   1   2
ATOM      2  O   UNL     1      -2.544  11.260  25.253  0.00  0.00    -0.388 OA
ATOM      3  H   UNL     1      -2.633  10.304  25.233  0.00  0.00    +0.210 HD
ENDBRANCH   1   2
BRANCH   1   4
ATOM      4  C   UNL     1      -3.922  12.109  27.096  0.00  0.00    +0.175 C 
BRANCH   4   5
ATOM      5  C   UNL     1      -3.452  10.902  27.922  0.00  0.00    +0.176 C 
ATOM      6  O   UNL     1      -4.040   9.706  27.340  0.00  0.00    -0.332 OA
ATOM      7  C   UNL     1      -3.617   8.436  27.938  0.00  0.00    +0.277 C 
ATOM      8  C   UNL     1      -3.862   8.450  29.467  0.00  0.00    +0.110 C 
ATOM      9  C   UNL     1      -3.282   9.719  30.126  0.00  0.00    +0.143 C 
ATOM     10  C   UNL     1      -3.785  10.981  29.423  0.00  0.00    +0.133 C 
BRANCH  10  11
ATOM     11  N   UNL     1      -3.158  12.178  30.004  0.00  0.00    -0.308 N 
ATOM     12  H   UNL     1      -2.165  12.303  29.869  0.00  0.00    +0.149 HD
ATOM     13  C   UNL     1      -3.816  13.111  30.698  0.00  0.00    +0.210 C 
ATOM     14  C   UNL     1      -5.324  12.878  30.909  0.00  0.00    +0.109 C 
ATOM     15  O   UNL     1      -3.267  14.112  31.160  0.00  0.00    -0.276 OA
ENDBRANCH  10  11
BRANCH   7  16
ATOM     16  C   UNL     1      -2.123   8.171  27.658  0.00  0.00    +0.414 C 
ATOM     17  O   UNL     1      -1.451   7.510  28.449  0.00  0.00    -0.240 OA
ATOM     18  O   UNL     1      -1.590   8.618  26.642  0.00  0.00    -0.240 OA
ENDBRANCH   7  16
BRANCH   7  19
ATOM     19  O   UNL     1      -4.418   7.376  27.356  0.00  0.00    -0.343 OA
ATOM     20  C   UNL     1      -5.844   7.483  27.599  0.00  0.00    +0.198 C 
ENDBRANCH   7  19
BRANCH   9  21
ATOM     21  O   UNL     1      -3.661   9.764  31.502  0.00  0.00    -0.390 OA
ATOM     22  H   UNL     1      -2.874   9.828  32.049  0.00  0.00    +0.210 HD
ENDBRANCH   9  21
ENDBRANCH   4   5
BRANCH   4  23
ATOM     23  O   UNL     1      -5.278  12.452  27.443  0.00  0.00    -0.387 OA
ATOM     24  H   UNL     1      -5.724  12.814  26.674  0.00  0.00    +0.210 HD
ENDBRANCH   4  23
ENDBRANCH   1   4
BRANCH   1  25
ATOM     25  C   UNL     1      -3.983  13.168  24.830  0.00  0.00    +0.141 C 
BRANCH  25  28
ATOM     26  C   UNL     1      -4.120  12.491  22.457  0.00  0.00    +0.401 C 
ATOM     27  O   UNL     1      -2.936  12.154  22.387  0.00  0.00    -0.226 OA
ATOM     28  N   UNL     1      -4.692  12.981  23.558  0.00  0.00    -0.279 N 
ATOM     29  H   UNL     1      -5.668  13.238  23.514  0.00  0.00    +0.152 HD
BRANCH  26  30
ATOM     30  O   UNL     1      -4.949  12.361  21.299  0.00  0.00    -0.444 OA
BRANCH  30  31
ATOM     31  C   UNL     1      -4.494  11.262  20.506  0.00  0.00    +0.292 C 
BRANCH  31  33
ATOM     32  N   UNL     1      -6.036  12.251  18.835  0.00  0.00    -0.131 NA
ATOM     33  C   UNL     1      -5.192  11.238  19.207  0.00  0.00    +0.120 A 
ATOM     34  C   UNL     1      -5.126  10.311  18.192  0.00  0.00    +0.137 A 
ATOM     35  N   UNL     1      -5.879  10.864  17.196  0.00  0.00    -0.247 N 
ATOM     36  N   UNL     1      -6.461  12.005  17.602  0.00  0.00    -0.065 NA
BRANCH  35  37
ATOM     37  C   UNL     1      -6.045  10.392  15.834  0.00  0.00    +0.180 C 
BRANCH  37  38
ATOM     38  C   UNL     1      -4.861  10.788  14.980  0.00  0.00    -0.022 A 
ATOM     39  C   UNL     1      -3.870   9.843  14.665  0.00  0.00    +0.054 A 
ATOM     40  C   UNL     1      -2.809  10.176  13.809  0.00  0.00    +0.162 A 
ATOM     41  C   UNL     1      -2.733  11.474  13.268  0.00  0.00    +0.162 A 
ATOM     42  C   UNL     1      -3.720  12.412  13.584  0.00  0.00    +0.050 A 
ATOM     43  C   UNL     1      -4.774  12.072  14.435  0.00  0.00    +0.009 A 
BRANCH  40  44
ATOM     44  O   UNL     1      -1.814   9.305  13.437  0.00  0.00    -0.491 OA
ATOM     45  C   UNL     1      -2.020   7.920  13.678  0.00  0.00    +0.277 C 
ENDBRANCH  40  44
BRANCH  41  46
ATOM     46  O   UNL     1      -1.661  11.724  12.445  0.00  0.00    -0.491 OA
ATOM     47  C   UNL     1      -1.621  12.976  11.775  0.00  0.00    +0.277 C 
ENDBRANCH  41  46
ENDBRANCH  37  38
ENDBRANCH  35  37
ENDBRANCH  31  33
ENDBRANCH  30  31
ENDBRANCH  26  30
ENDBRANCH  25  28
ENDBRANCH   1  25
TORSDOF 17
