REMARK VINA RESULT:    -4.851      2.585      4.012
REMARK INTER + INTRA:         -10.889
REMARK INTER:                  -9.046
REMARK INTRA:                  -1.843
REMARK UNBOUND:                -2.494
REMARK  Name = lig_assembled_56.pdb
REMARK  16 active torsions:
REMARK  status: ('A' for Active; 'I' for Inactive)
REMARK    1  A    between atoms: _2  and  _10
REMARK    2  A    between atoms: _5  and  _18
REMARK    3  A    between atoms: _7  and  _8
REMARK    4  A    between atoms: _7  and  _18
REMARK    5  A    between atoms: _14  and  _34
REMARK    6  A    between atoms: _16  and  _22
REMARK    7  A    between atoms: _17  and  _21
REMARK    8  A    between atoms: _21  and  _22
REMARK    9  A    between atoms: _24  and  _25
REMARK   10  A    between atoms: _26  and  _27
REMARK   11  A    between atoms: _28  and  _30
REMARK   12  A    between atoms: _30  and  _31
REMARK   13  A    between atoms: _30  and  _32
REMARK   14  A    between atoms: _32  and  _33
REMARK   15  A    between atoms: _32  and  _34
REMARK   16  A    between atoms: _35  and  _37
REMARK                            x       y       z     vdW  Elec       q    Type
REMARK                         _______ _______ _______ _____ _____    ______ ____
ROOT
ATOM      1  C   UNL     1      -4.013  11.430  22.047  0.00  0.00    +0.163 C 
ENDROOT
BRANCH   1   2
ATOM      2  O   UNL     1      -3.815  10.054  21.683  0.00  0.00    -0.388 OA
ATOM      3  H   UNL     1      -4.362   9.494  22.239  0.00  0.00    +0.210 HD
ENDBRANCH   1   2
BRANCH   1   4
ATOM      4  C   UNL     1      -3.910  12.317  20.811  0.00  0.00    +0.141 C 
BRANCH   4   7
ATOM      5  C   UNL     1      -5.909  12.077  19.379  0.00  0.00    +0.401 C 
ATOM      6  O   UNL     1      -6.591  12.866  20.037  0.00  0.00    -0.226 OA
ATOM      7  N   UNL     1      -4.648  11.757  19.672  0.00  0.00    -0.279 N 
ATOM      8  H   UNL     1      -4.174  11.092  19.077  0.00  0.00    +0.152 HD
BRANCH   5   9
ATOM      9  O   UNL     1      -6.486  11.451  18.230  0.00  0.00    -0.444 OA
BRANCH   9  10
ATOM     10  C   UNL     1      -6.568  10.040  18.444  0.00  0.00    +0.292 C 
BRANCH  10  12
ATOM     11  N   UNL     1      -4.930   8.222  18.081  0.00  0.00    -0.131 NA
ATOM     12  C   UNL     1      -5.568   9.337  17.620  0.00  0.00    +0.121 A 
ATOM     13  C   UNL     1      -5.116   9.620  16.351  0.00  0.00    +0.143 A 
ATOM     14  N   UNL     1      -4.206   8.628  16.068  0.00  0.00    -0.220 N 
ATOM     15  N   UNL     1      -4.103   7.798  17.136  0.00  0.00    -0.060 NA
BRANCH  14  16
ATOM     16  C   UNL     1      -3.460   8.418  14.882  0.00  0.00    +0.070 A 
ATOM     17  C   UNL     1      -2.656   7.285  14.728  0.00  0.00    +0.047 A 
ATOM     18  C   UNL     1      -1.941   7.151  13.549  0.00  0.00    +0.113 A 
ATOM     19  N   UNL     1      -1.976   8.048  12.542  0.00  0.00    -0.263 NA
ATOM     20  C   UNL     1      -2.762   9.132  12.715  0.00  0.00    +0.113 A 
ATOM     21  C   UNL     1      -3.517   9.361  13.852  0.00  0.00    +0.047 A 
ENDBRANCH  14  16
ENDBRANCH  10  12
ENDBRANCH   9  10
ENDBRANCH   5   9
ENDBRANCH   4   7
ENDBRANCH   1   4
BRANCH   1  22
ATOM     22  C   UNL     1      -2.974  11.878  23.089  0.00  0.00    +0.175 C 
BRANCH  22  23
ATOM     23  C   UNL     1      -3.316  11.376  24.500  0.00  0.00    +0.176 C 
ATOM     24  O   UNL     1      -3.116   9.936  24.523  0.00  0.00    -0.332 OA
ATOM     25  C   UNL     1      -3.295   9.292  25.827  0.00  0.00    +0.277 C 
ATOM     26  C   UNL     1      -4.686   9.637  26.415  0.00  0.00    +0.110 C 
ATOM     27  C   UNL     1      -4.957  11.156  26.383  0.00  0.00    +0.143 C 
ATOM     28  C   UNL     1      -4.738  11.722  24.979  0.00  0.00    +0.133 C 
BRANCH  28  29
ATOM     29  N   UNL     1      -4.914  13.183  24.980  0.00  0.00    -0.308 N 
ATOM     30  H   UNL     1      -4.233  13.740  25.476  0.00  0.00    +0.149 HD
ATOM     31  C   UNL     1      -5.917  13.821  24.369  0.00  0.00    +0.210 C 
ATOM     32  C   UNL     1      -6.953  12.941  23.645  0.00  0.00    +0.109 C 
ATOM     33  O   UNL     1      -6.031  15.047  24.374  0.00  0.00    -0.276 OA
ENDBRANCH  28  29
BRANCH  25  34
ATOM     34  C   UNL     1      -2.194   9.737  26.812  0.00  0.00    +0.414 C 
ATOM     35  O   UNL     1      -1.041   9.905  26.418  0.00  0.00    -0.240 OA
ATOM     36  O   UNL     1      -2.459   9.927  28.000  0.00  0.00    -0.240 OA
ENDBRANCH  25  34
BRANCH  27  37
ATOM     37  O   UNL     1      -6.301  11.414  26.790  0.00  0.00    -0.390 OA
ATOM     38  H   UNL     1      -6.593  10.723  27.389  0.00  0.00    +0.210 HD
ENDBRANCH  27  37
BRANCH  25  39
ATOM     39  O   UNL     1      -3.225   7.856  25.632  0.00  0.00    -0.343 OA
ATOM     40  C   UNL     1      -4.185   7.318  24.688  0.00  0.00    +0.198 C 
ENDBRANCH  25  39
ENDBRANCH  22  23
BRANCH  22  41
ATOM     41  O   UNL     1      -2.857  13.315  23.088  0.00  0.00    -0.387 OA
ATOM     42  H   UNL     1      -3.267  13.670  23.880  0.00  0.00    +0.210 HD
ENDBRANCH  22  41
ENDBRANCH   1  22
TORSDOF 14
