REMARK VINA RESULT:    -4.517      4.484     10.079
REMARK INTER + INTRA:         -10.311
REMARK INTER:                  -7.752
REMARK INTRA:                  -2.559
REMARK UNBOUND:                -2.494
REMARK  Name = lig_assembled_56.pdb
REMARK  16 active torsions:
REMARK  status: ('A' for Active; 'I' for Inactive)
REMARK    1  A    between atoms: _2  and  _10
REMARK    2  A    between atoms: _5  and  _18
REMARK    3  A    between atoms: _7  and  _8
REMARK    4  A    between atoms: _7  and  _18
REMARK    5  A    between atoms: _14  and  _34
REMARK    6  A    between atoms: _16  and  _22
REMARK    7  A    between atoms: _17  and  _21
REMARK    8  A    between atoms: _21  and  _22
REMARK    9  A    between atoms: _24  and  _25
REMARK   10  A    between atoms: _26  and  _27
REMARK   11  A    between atoms: _28  and  _30
REMARK   12  A    between atoms: _30  and  _31
REMARK   13  A    between atoms: _30  and  _32
REMARK   14  A    between atoms: _32  and  _33
REMARK   15  A    between atoms: _32  and  _34
REMARK   16  A    between atoms: _35  and  _37
REMARK                            x       y       z     vdW  Elec       q    Type
REMARK                         _______ _______ _______ _____ _____    ______ ____
ROOT
ATOM      1  C   UNL     1      -2.944   9.668  26.414  0.00  0.00    +0.163 C 
ENDROOT
BRANCH   1   2
ATOM      2  O   UNL     1      -4.165   8.912  26.381  0.00  0.00    -0.388 OA
ATOM      3  H   UNL     1      -4.783   9.272  27.022  0.00  0.00    +0.210 HD
ENDBRANCH   1   2
BRANCH   1   4
ATOM      4  C   UNL     1      -2.159   9.337  27.679  0.00  0.00    +0.141 C 
BRANCH   4   7
ATOM      5  C   UNL     1      -3.607   9.604  29.663  0.00  0.00    +0.401 C 
ATOM      6  O   UNL     1      -4.161   8.511  29.523  0.00  0.00    -0.226 OA
ATOM      7  N   UNL     1      -2.664  10.072  28.845  0.00  0.00    -0.279 N 
ATOM      8  H   UNL     1      -2.276  10.985  29.037  0.00  0.00    +0.152 HD
BRANCH   5   9
ATOM      9  O   UNL     1      -3.985  10.438  30.762  0.00  0.00    -0.444 OA
BRANCH   9  10
ATOM     10  C   UNL     1      -2.815  10.846  31.476  0.00  0.00    +0.292 C 
BRANCH  10  12
ATOM     11  N   UNL     1      -1.801  12.936  32.329  0.00  0.00    -0.131 NA
ATOM     12  C   UNL     1      -2.835  12.304  31.701  0.00  0.00    +0.121 A 
ATOM     13  C   UNL     1      -3.790  13.235  31.362  0.00  0.00    +0.143 A 
ATOM     14  N   UNL     1      -3.282  14.439  31.791  0.00  0.00    -0.220 N 
ATOM     15  N   UNL     1      -2.080  14.231  32.382  0.00  0.00    -0.060 NA
BRANCH  14  16
ATOM     16  C   UNL     1      -3.842  15.734  31.669  0.00  0.00    +0.070 A 
ATOM     17  C   UNL     1      -3.759  16.656  32.716  0.00  0.00    +0.047 A 
ATOM     18  C   UNL     1      -4.343  17.900  32.534  0.00  0.00    +0.113 A 
ATOM     19  N   UNL     1      -4.984  18.273  31.407  0.00  0.00    -0.263 NA
ATOM     20  C   UNL     1      -5.048  17.364  30.410  0.00  0.00    +0.113 A 
ATOM     21  C   UNL     1      -4.498  16.097  30.489  0.00  0.00    +0.047 A 
ENDBRANCH  14  16
ENDBRANCH  10  12
ENDBRANCH   9  10
ENDBRANCH   5   9
ENDBRANCH   4   7
ENDBRANCH   1   4
BRANCH   1  22
ATOM     22  C   UNL     1      -3.231  11.179  26.368  0.00  0.00    +0.175 C 
BRANCH  22  23
ATOM     23  C   UNL     1      -4.193  11.550  25.230  0.00  0.00    +0.176 C 
ATOM     24  O   UNL     1      -3.516  12.504  24.365  0.00  0.00    -0.332 OA
ATOM     25  C   UNL     1      -4.249  12.894  23.157  0.00  0.00    +0.277 C 
ATOM     26  C   UNL     1      -5.655  13.428  23.525  0.00  0.00    +0.110 C 
ATOM     27  C   UNL     1      -6.401  12.462  24.470  0.00  0.00    +0.143 C 
ATOM     28  C   UNL     1      -5.547  12.120  25.691  0.00  0.00    +0.133 C 
BRANCH  28  29
ATOM     29  N   UNL     1      -6.233  11.133  26.539  0.00  0.00    -0.308 N 
ATOM     30  H   UNL     1      -6.552  10.278  26.105  0.00  0.00    +0.149 HD
ATOM     31  C   UNL     1      -6.462  11.292  27.846  0.00  0.00    +0.210 C 
ATOM     32  C   UNL     1      -5.987  12.616  28.473  0.00  0.00    +0.109 C 
ATOM     33  O   UNL     1      -7.026  10.441  28.534  0.00  0.00    -0.276 OA
ENDBRANCH  28  29
BRANCH  25  34
ATOM     34  C   UNL     1      -4.388  11.699  22.191  0.00  0.00    +0.414 C 
ATOM     35  O   UNL     1      -3.586  10.767  22.239  0.00  0.00    -0.240 OA
ATOM     36  O   UNL     1      -5.300  11.668  21.364  0.00  0.00    -0.240 OA
ENDBRANCH  25  34
BRANCH  27  37
ATOM     37  O   UNL     1      -7.624  13.060  24.903  0.00  0.00    -0.390 OA
ATOM     38  H   UNL     1      -7.519  13.391  25.798  0.00  0.00    +0.210 HD
ENDBRANCH  27  37
BRANCH  25  39
ATOM     39  O   UNL     1      -3.510  13.962  22.510  0.00  0.00    -0.343 OA
ATOM     40  C   UNL     1      -4.253  15.192  22.318  0.00  0.00    +0.198 C 
ENDBRANCH  25  39
ENDBRANCH  22  23
BRANCH  22  41
ATOM     41  O   UNL     1      -1.998  11.915  26.236  0.00  0.00    -0.387 OA
ATOM     42  H   UNL     1      -1.592  12.016  27.100  0.00  0.00    +0.210 HD
ENDBRANCH  22  41
ENDBRANCH   1  22
TORSDOF 14
