REMARK VINA RESULT:    -4.515      2.385      3.208
REMARK INTER + INTRA:         -11.866
REMARK INTER:                  -8.966
REMARK INTRA:                  -2.900
REMARK UNBOUND:                -3.657
REMARK  Name = lig_assembled_88.pdb
REMARK  18 active torsions:
REMARK  status: ('A' for Active; 'I' for Inactive)
REMARK    1  A    between atoms: _2  and  _9
REMARK    2  A    between atoms: _4  and  _20
REMARK    3  A    between atoms: _5  and  _15
REMARK    4  A    between atoms: _6  and  _7
REMARK    5  A    between atoms: _6  and  _20
REMARK    6  A    between atoms: _9  and  _10
REMARK    7  A    between atoms: _16  and  _36
REMARK    8  A    between atoms: _18  and  _24
REMARK    9  A    between atoms: _19  and  _23
REMARK   10  A    between atoms: _23  and  _24
REMARK   11  A    between atoms: _26  and  _27
REMARK   12  A    between atoms: _28  and  _29
REMARK   13  A    between atoms: _30  and  _32
REMARK   14  A    between atoms: _32  and  _33
REMARK   15  A    between atoms: _32  and  _34
REMARK   16  A    between atoms: _34  and  _35
REMARK   17  A    between atoms: _34  and  _36
REMARK   18  A    between atoms: _37  and  _39
REMARK                            x       y       z     vdW  Elec       q    Type
REMARK                         _______ _______ _______ _____ _____    ______ ____
ROOT
ATOM      1  C   UNL     1      -2.838  11.655  24.523  0.00  0.00    +0.163 C 
ENDROOT
BRANCH   1   2
ATOM      2  O   UNL     1      -1.981  11.571  25.674  0.00  0.00    -0.388 OA
ATOM      3  H   UNL     1      -2.515  11.575  26.472  0.00  0.00    +0.210 HD
ENDBRANCH   1   2
BRANCH   1   4
ATOM      4  C   UNL     1      -4.083  10.768  24.699  0.00  0.00    +0.175 C 
BRANCH   4   5
ATOM      5  C   UNL     1      -3.951   9.817  25.897  0.00  0.00    +0.176 C 
ATOM      6  O   UNL     1      -2.926   8.836  25.578  0.00  0.00    -0.332 OA
ATOM      7  C   UNL     1      -2.587   7.901  26.655  0.00  0.00    +0.277 C 
ATOM      8  C   UNL     1      -3.858   7.182  27.169  0.00  0.00    +0.110 C 
ATOM      9  C   UNL     1      -4.988   8.183  27.491  0.00  0.00    +0.143 C 
ATOM     10  C   UNL     1      -5.256   9.108  26.303  0.00  0.00    +0.133 C 
BRANCH  10  11
ATOM     11  N   UNL     1      -6.273  10.113  26.653  0.00  0.00    -0.308 N 
ATOM     12  H   UNL     1      -6.066  10.750  27.409  0.00  0.00    +0.149 HD
ATOM     13  C   UNL     1      -7.451  10.238  26.035  0.00  0.00    +0.210 C 
ATOM     14  C   UNL     1      -7.746   9.235  24.904  0.00  0.00    +0.109 C 
ATOM     15  O   UNL     1      -8.277  11.099  26.339  0.00  0.00    -0.276 OA
ENDBRANCH  10  11
BRANCH   7  16
ATOM     16  C   UNL     1      -1.904   8.640  27.825  0.00  0.00    +0.414 C 
ATOM     17  O   UNL     1      -1.099   9.543  27.603  0.00  0.00    -0.240 OA
ATOM     18  O   UNL     1      -2.158   8.333  28.991  0.00  0.00    -0.240 OA
ENDBRANCH   7  16
BRANCH   7  19
ATOM     19  O   UNL     1      -1.684   6.902  26.115  0.00  0.00    -0.343 OA
ATOM     20  C   UNL     1      -1.751   5.604  26.757  0.00  0.00    +0.198 C 
ENDBRANCH   7  19
BRANCH   9  21
ATOM     21  O   UNL     1      -6.184   7.473  27.814  0.00  0.00    -0.390 OA
ATOM     22  H   UNL     1      -6.426   7.651  28.726  0.00  0.00    +0.210 HD
ENDBRANCH   9  21
ENDBRANCH   4   5
BRANCH   4  23
ATOM     23  O   UNL     1      -4.331  10.018  23.493  0.00  0.00    -0.387 OA
ATOM     24  H   UNL     1      -5.278   9.904  23.377  0.00  0.00    +0.210 HD
ENDBRANCH   4  23
ENDBRANCH   1   4
BRANCH   1  25
ATOM     25  C   UNL     1      -3.269  13.100  24.298  0.00  0.00    +0.141 C 
BRANCH  25  28
ATOM     26  C   UNL     1      -4.404  13.597  22.160  0.00  0.00    +0.401 C 
ATOM     27  O   UNL     1      -3.371  13.950  21.585  0.00  0.00    -0.226 OA
ATOM     28  N   UNL     1      -4.449  13.190  23.429  0.00  0.00    -0.279 N 
ATOM     29  H   UNL     1      -5.345  12.930  23.815  0.00  0.00    +0.152 HD
BRANCH  26  30
ATOM     30  O   UNL     1      -5.640  13.620  21.442  0.00  0.00    -0.444 OA
BRANCH  30  31
ATOM     31  C   UNL     1      -6.364  12.414  21.698  0.00  0.00    +0.292 C 
BRANCH  31  33
ATOM     32  N   UNL     1      -5.083  10.550  20.690  0.00  0.00    -0.131 NA
ATOM     33  C   UNL     1      -6.130  11.432  20.623  0.00  0.00    +0.120 A 
ATOM     34  C   UNL     1      -6.817  11.227  19.447  0.00  0.00    +0.137 A 
ATOM     35  N   UNL     1      -6.094  10.260  18.811  0.00  0.00    -0.247 N 
ATOM     36  N   UNL     1      -5.083   9.820  19.583  0.00  0.00    -0.065 NA
BRANCH  35  37
ATOM     37  C   UNL     1      -6.261   9.760  17.455  0.00  0.00    +0.184 C 
BRANCH  37  38
ATOM     38  C   UNL     1      -5.111  10.125  16.538  0.00  0.00    +0.017 A 
ATOM     39  C   UNL     1      -4.122   9.196  16.159  0.00  0.00    +0.024 A 
ATOM     40  C   UNL     1      -3.075   9.568  15.312  0.00  0.00    +0.019 A 
ATOM     41 BR   UNL     1      -1.740   8.306  14.866  0.00  0.00    -0.050 Br
ATOM     42  C   UNL     1      -3.000  10.858  14.796  0.00  0.00    +0.034 A 
ATOM     43  C   UNL     1      -3.995  11.775  15.124  0.00  0.00    +0.061 A 
ATOM     44 BR   UNL     1      -3.910  13.520  14.388  0.00  0.00    -0.046 Br
ATOM     45  C   UNL     1      -5.042  11.410  15.982  0.00  0.00    +0.136 A 
BRANCH  45  46
ATOM     46  O   UNL     1      -6.035  12.300  16.299  0.00  0.00    -0.505 OA
ATOM     47  H   UNL     1      -6.327  12.104  17.210  0.00  0.00    +0.292 HD
ENDBRANCH  45  46
ENDBRANCH  37  38
ENDBRANCH  35  37
ENDBRANCH  31  33
ENDBRANCH  30  31
ENDBRANCH  26  30
ENDBRANCH  25  28
ENDBRANCH   1  25
TORSDOF 16
