REMARK VINA RESULT:    -4.570      3.803      9.500
REMARK INTER + INTRA:         -12.559
REMARK INTER:                  -8.445
REMARK INTRA:                  -4.114
REMARK UNBOUND:                -3.581
REMARK  Name = lig_assembled_31.pdb
REMARK  20 active torsions:
REMARK  status: ('A' for Active; 'I' for Inactive)
REMARK    1  A    between atoms: _2  and  _11
REMARK    2  A    between atoms: _3  and  _12
REMARK    3  A    between atoms: _4  and  _14
REMARK    4  A    between atoms: _6  and  _24
REMARK    5  A    between atoms: _8  and  _9
REMARK    6  A    between atoms: _8  and  _24
REMARK    7  A    between atoms: _11  and  _12
REMARK    8  A    between atoms: _14  and  _15
REMARK    9  A    between atoms: _20  and  _40
REMARK   10  A    between atoms: _22  and  _28
REMARK   11  A    between atoms: _23  and  _27
REMARK   12  A    between atoms: _27  and  _28
REMARK   13  A    between atoms: _30  and  _31
REMARK   14  A    between atoms: _32  and  _33
REMARK   15  A    between atoms: _34  and  _36
REMARK   16  A    between atoms: _36  and  _37
REMARK   17  A    between atoms: _36  and  _38
REMARK   18  A    between atoms: _38  and  _39
REMARK   19  A    between atoms: _38  and  _40
REMARK   20  A    between atoms: _41  and  _43
REMARK                            x       y       z     vdW  Elec       q    Type
REMARK                         _______ _______ _______ _____ _____    ______ ____
ROOT
ATOM      1  C   UNL     1      -4.780  13.238  22.216  0.00  0.00    +0.401 C 
ATOM      2  O   UNL     1      -5.727  13.523  22.953  0.00  0.00    -0.226 OA
ATOM      3  N   UNL     1      -3.551  12.964  22.654  0.00  0.00    -0.279 N 
ATOM      4  H   UNL     1      -2.843  12.731  21.972  0.00  0.00    +0.152 HD
ENDROOT
BRANCH   1   5
ATOM      5  O   UNL     1      -4.991  13.187  20.803  0.00  0.00    -0.444 OA
BRANCH   5   6
ATOM      6  C   UNL     1      -4.206  12.133  20.240  0.00  0.00    +0.292 C 
BRANCH   6   8
ATOM      7  N   UNL     1      -4.076   9.871  21.238  0.00  0.00    -0.131 NA
ATOM      8  C   UNL     1      -4.798  10.820  20.565  0.00  0.00    +0.120 A 
ATOM      9  C   UNL     1      -6.054  10.322  20.296  0.00  0.00    +0.137 A 
ATOM     10  N   UNL     1      -6.027   9.064  20.822  0.00  0.00    -0.250 N 
ATOM     11  N   UNL     1      -4.841   8.798  21.393  0.00  0.00    -0.065 NA
BRANCH  10  12
ATOM     12  C   UNL     1      -7.079   8.069  20.816  0.00  0.00    +0.164 C 
BRANCH  12  13
ATOM     13  C   UNL     1      -6.821   6.995  19.772  0.00  0.00    +0.129 C 
BRANCH  13  14
ATOM     14  N   UNL     1      -5.655   7.231  18.931  0.00  0.00    -0.298 N 
ATOM     15  H   UNL     1      -4.728   7.258  19.330  0.00  0.00    +0.150 HD
ATOM     16  C   UNL     1      -5.842   7.831  17.713  0.00  0.00    +0.300 C 
ATOM     17  O   UNL     1      -6.956   8.084  17.262  0.00  0.00    -0.253 OA
ATOM     18  N   UNL     1      -4.693   8.096  17.034  0.00  0.00    -0.292 N 
ATOM     19  H   UNL     1      -3.776   7.925  17.423  0.00  0.00    +0.151 HD
BRANCH  18  20
ATOM     20  C   UNL     1      -4.786   8.722  15.736  0.00  0.00    +0.180 C 
BRANCH  20  21
ATOM     21  C   UNL     1      -4.362  10.144  15.737  0.00  0.00    +0.122 A 
ATOM     22  O   UNL     1      -3.575  10.603  14.716  0.00  0.00    -0.466 OA
ATOM     23  C   UNL     1      -3.341  11.922  14.965  0.00  0.00    +0.195 A 
ATOM     24  C   UNL     1      -3.961  12.317  16.127  0.00  0.00    +0.041 A 
ATOM     25  C   UNL     1      -4.620  11.170  16.627  0.00  0.00    +0.046 A 
ENDBRANCH  20  21
ENDBRANCH  18  20
ENDBRANCH  13  14
ENDBRANCH  12  13
ENDBRANCH  10  12
ENDBRANCH   6   8
ENDBRANCH   5   6
ENDBRANCH   1   5
BRANCH   3  26
ATOM     26  C   UNL     1      -3.169  12.982  24.071  0.00  0.00    +0.141 C 
BRANCH  26  27
ATOM     27  C   UNL     1      -2.934  11.576  24.615  0.00  0.00    +0.163 C 
BRANCH  27  28
ATOM     28  O   UNL     1      -1.955  11.612  25.666  0.00  0.00    -0.388 OA
ATOM     29  H   UNL     1      -2.316  11.201  26.455  0.00  0.00    +0.210 HD
ENDBRANCH  27  28
BRANCH  27  30
ATOM     30  C   UNL     1      -4.264  10.993  25.122  0.00  0.00    +0.175 C 
BRANCH  30  31
ATOM     31  C   UNL     1      -4.050   9.897  26.176  0.00  0.00    +0.176 C 
ATOM     32  O   UNL     1      -3.017   9.000  25.685  0.00  0.00    -0.332 OA
ATOM     33  C   UNL     1      -2.601   7.943  26.612  0.00  0.00    +0.277 C 
ATOM     34  C   UNL     1      -3.827   7.122  27.082  0.00  0.00    +0.110 C 
ATOM     35  C   UNL     1      -4.965   8.035  27.584  0.00  0.00    +0.143 C 
ATOM     36  C   UNL     1      -5.315   9.099  26.542  0.00  0.00    +0.133 C 
BRANCH  36  37
ATOM     37  N   UNL     1      -6.340  10.015  27.066  0.00  0.00    -0.308 N 
ATOM     38  H   UNL     1      -6.083  10.621  27.833  0.00  0.00    +0.149 HD
ATOM     39  C   UNL     1      -7.587  10.099  26.596  0.00  0.00    +0.210 C 
ATOM     40  C   UNL     1      -7.955   9.143  25.445  0.00  0.00    +0.109 C 
ATOM     41  O   UNL     1      -8.420  10.886  27.045  0.00  0.00    -0.276 OA
ENDBRANCH  36  37
BRANCH  33  42
ATOM     42  C   UNL     1      -1.882   8.543  27.839  0.00  0.00    +0.414 C 
ATOM     43  O   UNL     1      -1.169   9.538  27.714  0.00  0.00    -0.240 OA
ATOM     44  O   UNL     1      -2.016   8.034  28.952  0.00  0.00    -0.240 OA
ENDBRANCH  33  42
BRANCH  35  45
ATOM     45  O   UNL     1      -6.125   7.250  27.862  0.00  0.00    -0.390 OA
ATOM     46  H   UNL     1      -6.016   6.804  28.705  0.00  0.00    +0.210 HD
ENDBRANCH  35  45
BRANCH  33  47
ATOM     47  O   UNL     1      -1.699   7.054  25.905  0.00  0.00    -0.343 OA
ATOM     48  C   UNL     1      -2.070   5.653  25.936  0.00  0.00    +0.198 C 
ENDBRANCH  33  47
ENDBRANCH  30  31
BRANCH  30  49
ATOM     49  O   UNL     1      -5.034  10.476  24.018  0.00  0.00    -0.387 OA
ATOM     50  H   UNL     1      -5.367  11.206  23.490  0.00  0.00    +0.210 HD
ENDBRANCH  30  49
ENDBRANCH  27  30
ENDBRANCH  26  27
ENDBRANCH   3  26
TORSDOF 18
