REMARK VINA RESULT:    -5.134      3.907      6.189
REMARK INTER + INTRA:         -12.196
REMARK INTER:                 -10.301
REMARK INTRA:                  -1.895
REMARK UNBOUND:                -2.711
REMARK  Name = lig_assembled_36.pdb
REMARK  18 active torsions:
REMARK  status: ('A' for Active; 'I' for Inactive)
REMARK    1  A    between atoms: _2  and  _10
REMARK    2  A    between atoms: _5  and  _21
REMARK    3  A    between atoms: _7  and  _8
REMARK    4  A    between atoms: _7  and  _21
REMARK    5  A    between atoms: _10  and  _11
REMARK    6  A    between atoms: _14  and  _15
REMARK    7  A    between atoms: _17  and  _37
REMARK    8  A    between atoms: _19  and  _25
REMARK    9  A    between atoms: _20  and  _24
REMARK   10  A    between atoms: _24  and  _25
REMARK   11  A    between atoms: _27  and  _28
REMARK   12  A    between atoms: _29  and  _30
REMARK   13  A    between atoms: _31  and  _33
REMARK   14  A    between atoms: _33  and  _34
REMARK   15  A    between atoms: _33  and  _35
REMARK   16  A    between atoms: _35  and  _36
REMARK   17  A    between atoms: _35  and  _37
REMARK   18  A    between atoms: _38  and  _40
REMARK                            x       y       z     vdW  Elec       q    Type
REMARK                         _______ _______ _______ _____ _____    ______ ____
ROOT
ATOM      1  C   UNL     1      -5.064  11.531  21.132  0.00  0.00    +0.163 C 
ENDROOT
BRANCH   1   2
ATOM      2  O   UNL     1      -5.423  10.145  20.999  0.00  0.00    -0.388 OA
ATOM      3  H   UNL     1      -5.699   9.971  20.096  0.00  0.00    +0.210 HD
ENDBRANCH   1   2
BRANCH   1   4
ATOM      4  C   UNL     1      -3.713  11.683  21.851  0.00  0.00    +0.175 C 
BRANCH   4   5
ATOM      5  C   UNL     1      -3.883  11.887  23.363  0.00  0.00    +0.176 C 
ATOM      6  O   UNL     1      -4.335  10.629  23.936  0.00  0.00    -0.332 OA
ATOM      7  C   UNL     1      -4.451  10.603  25.397  0.00  0.00    +0.277 C 
ATOM      8  C   UNL     1      -5.359  11.757  25.888  0.00  0.00    +0.110 C 
ATOM      9  C   UNL     1      -4.937  13.112  25.280  0.00  0.00    +0.143 C 
ATOM     10  C   UNL     1      -4.844  13.024  23.756  0.00  0.00    +0.133 C 
BRANCH  10  11
ATOM     11  N   UNL     1      -4.358  14.294  23.196  0.00  0.00    -0.308 N 
ATOM     12  H   UNL     1      -3.399  14.554  23.379  0.00  0.00    +0.149 HD
ATOM     13  C   UNL     1      -5.100  15.127  22.461  0.00  0.00    +0.210 C 
ATOM     14  C   UNL     1      -6.565  14.715  22.221  0.00  0.00    +0.109 C 
ATOM     15  O   UNL     1      -4.662  16.177  21.992  0.00  0.00    -0.276 OA
ENDBRANCH  10  11
BRANCH   7  16
ATOM     16  C   UNL     1      -3.063  10.722  26.059  0.00  0.00    +0.414 C 
ATOM     17  O   UNL     1      -2.061  10.308  25.477  0.00  0.00    -0.240 OA
ATOM     18  O   UNL     1      -2.944  11.232  27.174  0.00  0.00    -0.240 OA
ENDBRANCH   7  16
BRANCH   7  19
ATOM     19  O   UNL     1      -5.067   9.345  25.776  0.00  0.00    -0.343 OA
ATOM     20  C   UNL     1      -5.100   8.340  24.731  0.00  0.00    +0.198 C 
ENDBRANCH   7  19
BRANCH   9  21
ATOM     21  O   UNL     1      -5.887  14.117  25.637  0.00  0.00    -0.390 OA
ATOM     22  H   UNL     1      -6.703  13.973  25.152  0.00  0.00    +0.210 HD
ENDBRANCH   9  21
ENDBRANCH   4   5
BRANCH   4  23
ATOM     23  O   UNL     1      -2.969  12.779  21.283  0.00  0.00    -0.387 OA
ATOM     24  H   UNL     1      -3.197  12.875  20.355  0.00  0.00    +0.210 HD
ENDBRANCH   4  23
ENDBRANCH   1   4
BRANCH   1  25
ATOM     25  C   UNL     1      -4.985  12.183  19.755  0.00  0.00    +0.141 C 
BRANCH  25  28
ATOM     26  C   UNL     1      -5.411  11.305  17.485  0.00  0.00    +0.401 C 
ATOM     27  O   UNL     1      -6.125  12.253  17.150  0.00  0.00    -0.226 OA
ATOM     28  N   UNL     1      -4.842  11.188  18.685  0.00  0.00    -0.279 N 
ATOM     29  H   UNL     1      -4.281  10.368  18.869  0.00  0.00    +0.152 HD
BRANCH  26  30
ATOM     30  O   UNL     1      -5.168  10.254  16.547  0.00  0.00    -0.444 OA
BRANCH  30  31
ATOM     31  C   UNL     1      -3.759  10.039  16.424  0.00  0.00    +0.292 C 
BRANCH  31  33
ATOM     32  N   UNL     1      -2.377   9.866  14.375  0.00  0.00    -0.131 NA
ATOM     33  C   UNL     1      -3.272  10.570  15.137  0.00  0.00    +0.120 A 
ATOM     34  C   UNL     1      -3.593  11.741  14.488  0.00  0.00    +0.137 A 
ATOM     35  N   UNL     1      -2.937  11.642  13.297  0.00  0.00    -0.247 N 
ATOM     36  N   UNL     1      -2.163  10.542  13.256  0.00  0.00    -0.065 NA
BRANCH  35  37
ATOM     37  C   UNL     1      -3.011  12.538  12.160  0.00  0.00    +0.180 C 
BRANCH  37  38
ATOM     38  C   UNL     1      -1.858  13.515  12.155  0.00  0.00    -0.026 A 
ATOM     39  C   UNL     1      -1.885  14.666  12.957  0.00  0.00    +0.007 A 
ATOM     40  C   UNL     1      -0.811  15.562  12.950  0.00  0.00    +0.019 A 
ATOM     41  C   UNL     1       0.302  15.322  12.138  0.00  0.00    +0.052 A 
ATOM     42  C   UNL     1       0.327  14.191  11.318  0.00  0.00    +0.019 A 
ATOM     43  C   UNL     1      -0.748  13.296  11.324  0.00  0.00    +0.007 A 
BRANCH  41  44
ATOM     44  C   UNL     1       1.412  16.232  12.148  0.00  0.00    +0.099 C 
ATOM     45  N   UNL     1       2.306  16.971  12.167  0.00  0.00    -0.191 NA
ENDBRANCH  41  44
ENDBRANCH  37  38
ENDBRANCH  35  37
ENDBRANCH  31  33
ENDBRANCH  30  31
ENDBRANCH  26  30
ENDBRANCH  25  28
ENDBRANCH   1  25
TORSDOF 16
