REMARK VINA RESULT:    -4.342      4.587      8.531
REMARK INTER + INTRA:         -10.524
REMARK INTER:                  -7.768
REMARK INTRA:                  -2.756
REMARK UNBOUND:                -2.756
REMARK  Name = lig_assembled_41.pdb
REMARK  18 active torsions:
REMARK  status: ('A' for Active; 'I' for Inactive)
REMARK    1  A    between atoms: _2  and  _9
REMARK    2  A    between atoms: _4  and  _21
REMARK    3  A    between atoms: _6  and  _7
REMARK    4  A    between atoms: _6  and  _21
REMARK    5  A    between atoms: _10  and  _11
REMARK    6  A    between atoms: _11  and  _12
REMARK    7  A    between atoms: _17  and  _37
REMARK    8  A    between atoms: _19  and  _25
REMARK    9  A    between atoms: _20  and  _24
REMARK   10  A    between atoms: _24  and  _25
REMARK   11  A    between atoms: _27  and  _28
REMARK   12  A    between atoms: _29  and  _30
REMARK   13  A    between atoms: _31  and  _33
REMARK   14  A    between atoms: _33  and  _34
REMARK   15  A    between atoms: _33  and  _35
REMARK   16  A    between atoms: _35  and  _36
REMARK   17  A    between atoms: _35  and  _37
REMARK   18  A    between atoms: _38  and  _40
REMARK                            x       y       z     vdW  Elec       q    Type
REMARK                         _______ _______ _______ _____ _____    ______ ____
ROOT
ATOM      1  C   UNL     1      -7.366  11.321  15.574  0.00  0.00    +0.163 C 
ENDROOT
BRANCH   1   2
ATOM      2  O   UNL     1      -6.756  12.607  15.379  0.00  0.00    -0.388 OA
ATOM      3  H   UNL     1      -7.097  13.005  14.574  0.00  0.00    +0.210 HD
ENDBRANCH   1   2
BRANCH   1   4
ATOM      4  C   UNL     1      -7.561  11.056  17.063  0.00  0.00    +0.141 C 
BRANCH   4   7
ATOM      5  C   UNL     1      -5.514  11.313  18.423  0.00  0.00    +0.401 C 
ATOM      6  O   UNL     1      -5.171  10.135  18.301  0.00  0.00    -0.226 OA
ATOM      7  N   UNL     1      -6.620  11.828  17.884  0.00  0.00    -0.279 N 
ATOM      8  H   UNL     1      -6.821  12.804  18.049  0.00  0.00    +0.152 HD
BRANCH   5   9
ATOM      9  O   UNL     1      -4.694  12.199  19.191  0.00  0.00    -0.444 OA
BRANCH   9  10
ATOM     10  C   UNL     1      -5.262  12.369  20.492  0.00  0.00    +0.292 C 
BRANCH  10  12
ATOM     11  N   UNL     1      -3.245  11.172  21.254  0.00  0.00    -0.131 NA
ATOM     12  C   UNL     1      -4.531  11.559  21.482  0.00  0.00    +0.121 A 
ATOM     13  C   UNL     1      -4.928  11.090  22.715  0.00  0.00    +0.143 A 
ATOM     14  N   UNL     1      -3.878  10.322  23.163  0.00  0.00    -0.219 N 
ATOM     15  N   UNL     1      -2.836  10.469  22.299  0.00  0.00    -0.060 NA
BRANCH  14  16
ATOM     16  C   UNL     1      -3.723   9.565  24.360  0.00  0.00    +0.077 A 
ATOM     17  C   UNL     1      -3.213  10.073  25.573  0.00  0.00    +0.043 A 
ATOM     18  C   UNL     1      -3.066   9.195  26.668  0.00  0.00    +0.013 A 
ATOM     19  C   UNL     1      -3.408   7.845  26.567  0.00  0.00    +0.001 A 
ATOM     20  C   UNL     1      -3.933   7.351  25.382  0.00  0.00    +0.002 A 
ATOM     21  C   UNL     1      -4.100   8.204  24.292  0.00  0.00    +0.028 A 
BRANCH  17  22
ATOM     22  C   UNL     1      -3.010  11.528  25.847  0.00  0.00    +0.162 C 
ATOM     23  O   UNL     1      -2.039  12.103  25.360  0.00  0.00    -0.292 OA
ATOM     24  C   UNL     1      -3.991  12.284  26.710  0.00  0.00    +0.091 C 
ENDBRANCH  17  22
ENDBRANCH  14  16
ENDBRANCH  10  12
ENDBRANCH   9  10
ENDBRANCH   5   9
ENDBRANCH   4   7
ENDBRANCH   1   4
BRANCH   1  25
ATOM     25  C   UNL     1      -6.502  10.204  14.962  0.00  0.00    +0.175 C 
BRANCH  25  26
ATOM     26  C   UNL     1      -5.171  10.738  14.414  0.00  0.00    +0.176 C 
ATOM     27  O   UNL     1      -5.432  11.350  13.121  0.00  0.00    -0.332 OA
ATOM     28  C   UNL     1      -4.286  12.012  12.490  0.00  0.00    +0.277 C 
ATOM     29  C   UNL     1      -3.092  11.034  12.374  0.00  0.00    +0.110 C 
ATOM     30  C   UNL     1      -2.796  10.335  13.718  0.00  0.00    +0.143 C 
ATOM     31  C   UNL     1      -4.057   9.682  14.286  0.00  0.00    +0.133 C 
BRANCH  31  32
ATOM     32  N   UNL     1      -3.782   9.095  15.607  0.00  0.00    -0.308 N 
ATOM     33  H   UNL     1      -3.552   9.723  16.364  0.00  0.00    +0.149 HD
ATOM     34  C   UNL     1      -3.818   7.786  15.870  0.00  0.00    +0.210 C 
ATOM     35  C   UNL     1      -4.147   6.853  14.689  0.00  0.00    +0.109 C 
ATOM     36  O   UNL     1      -3.598   7.323  16.990  0.00  0.00    -0.276 OA
ENDBRANCH  31  32
BRANCH  28  37
ATOM     37  C   UNL     1      -3.859  13.254  13.299  0.00  0.00    +0.414 C 
ATOM     38  O   UNL     1      -2.691  13.641  13.271  0.00  0.00    -0.240 OA
ATOM     39  O   UNL     1      -4.681  13.870  13.979  0.00  0.00    -0.240 OA
ENDBRANCH  28  37
BRANCH  30  40
ATOM     40  O   UNL     1      -1.793   9.336  13.530  0.00  0.00    -0.390 OA
ATOM     41  H   UNL     1      -0.926   9.719  13.685  0.00  0.00    +0.210 HD
ENDBRANCH  30  40
BRANCH  28  42
ATOM     42  O   UNL     1      -4.681  12.413  11.152  0.00  0.00    -0.343 OA
ATOM     43  C   UNL     1      -6.112  12.508  10.938  0.00  0.00    +0.198 C 
ENDBRANCH  28  42
ENDBRANCH  25  26
BRANCH  25  44
ATOM     44  O   UNL     1      -7.232   9.527  13.920  0.00  0.00    -0.387 OA
ATOM     45  H   UNL     1      -7.957   9.030  14.307  0.00  0.00    +0.210 HD
ENDBRANCH  25  44
ENDBRANCH   1  25
TORSDOF 15
