REMARK VINA RESULT:    -5.049      2.503      5.151
REMARK INTER + INTRA:         -13.500
REMARK INTER:                  -8.228
REMARK INTRA:                  -5.272
REMARK UNBOUND:                -3.581
REMARK  Name = lig_assembled_31.pdb
REMARK  20 active torsions:
REMARK  status: ('A' for Active; 'I' for Inactive)
REMARK    1  A    between atoms: _2  and  _11
REMARK    2  A    between atoms: _3  and  _12
REMARK    3  A    between atoms: _4  and  _14
REMARK    4  A    between atoms: _6  and  _24
REMARK    5  A    between atoms: _8  and  _9
REMARK    6  A    between atoms: _8  and  _24
REMARK    7  A    between atoms: _11  and  _12
REMARK    8  A    between atoms: _14  and  _15
REMARK    9  A    between atoms: _20  and  _40
REMARK   10  A    between atoms: _22  and  _28
REMARK   11  A    between atoms: _23  and  _27
REMARK   12  A    between atoms: _27  and  _28
REMARK   13  A    between atoms: _30  and  _31
REMARK   14  A    between atoms: _32  and  _33
REMARK   15  A    between atoms: _34  and  _36
REMARK   16  A    between atoms: _36  and  _37
REMARK   17  A    between atoms: _36  and  _38
REMARK   18  A    between atoms: _38  and  _39
REMARK   19  A    between atoms: _38  and  _40
REMARK   20  A    between atoms: _41  and  _43
REMARK                            x       y       z     vdW  Elec       q    Type
REMARK                         _______ _______ _______ _____ _____    ______ ____
ROOT
ATOM      1  C   UNL     1      -1.953  10.069  27.134  0.00  0.00    +0.401 C 
ATOM      2  O   UNL     1      -0.898  10.001  26.498  0.00  0.00    -0.226 OA
ATOM      3  N   UNL     1      -2.870  11.020  26.957  0.00  0.00    -0.279 N 
ATOM      4  H   UNL     1      -3.708  10.985  27.520  0.00  0.00    +0.152 HD
ENDROOT
BRANCH   1   5
ATOM      5  O   UNL     1      -2.232   9.075  28.123  0.00  0.00    -0.444 OA
BRANCH   5   6
ATOM      6  C   UNL     1      -2.241   7.782  27.512  0.00  0.00    +0.292 C 
BRANCH   6   8
ATOM      7  N   UNL     1      -3.430   7.693  25.342  0.00  0.00    -0.131 NA
ATOM      8  C   UNL     1      -3.466   7.601  26.707  0.00  0.00    +0.120 A 
ATOM      9  C   UNL     1      -4.757   7.333  27.105  0.00  0.00    +0.137 A 
ATOM     10  N   UNL     1      -5.456   7.284  25.936  0.00  0.00    -0.250 N 
ATOM     11  N   UNL     1      -4.657   7.495  24.878  0.00  0.00    -0.065 NA
BRANCH  10  12
ATOM     12  C   UNL     1      -6.874   7.049  25.751  0.00  0.00    +0.164 C 
BRANCH  12  13
ATOM     13  C   UNL     1      -7.603   8.327  25.368  0.00  0.00    +0.129 C 
BRANCH  13  14
ATOM     14  N   UNL     1      -6.814   9.544  25.511  0.00  0.00    -0.298 N 
ATOM     15  H   UNL     1      -5.882   9.603  25.127  0.00  0.00    +0.150 HD
ATOM     16  C   UNL     1      -7.151  10.424  26.506  0.00  0.00    +0.300 C 
ATOM     17  O   UNL     1      -8.145  10.278  27.213  0.00  0.00    -0.253 OA
ATOM     18  N   UNL     1      -6.309  11.486  26.626  0.00  0.00    -0.292 N 
ATOM     19  H   UNL     1      -5.469  11.584  26.073  0.00  0.00    +0.151 HD
BRANCH  18  20
ATOM     20  C   UNL     1      -6.583  12.474  27.643  0.00  0.00    +0.180 C 
BRANCH  20  21
ATOM     21  C   UNL     1      -5.564  12.506  28.723  0.00  0.00    +0.122 A 
ATOM     22  O   UNL     1      -4.998  11.332  29.137  0.00  0.00    -0.466 OA
ATOM     23  C   UNL     1      -4.111  11.650  30.120  0.00  0.00    +0.195 A 
ATOM     24  C   UNL     1      -4.100  13.007  30.347  0.00  0.00    +0.041 A 
ATOM     25  C   UNL     1      -5.039  13.561  29.446  0.00  0.00    +0.046 A 
ENDBRANCH  20  21
ENDBRANCH  18  20
ENDBRANCH  13  14
ENDBRANCH  12  13
ENDBRANCH  10  12
ENDBRANCH   6   8
ENDBRANCH   5   6
ENDBRANCH   1   5
BRANCH   3  26
ATOM     26  C   UNL     1      -2.731  12.116  25.989  0.00  0.00    +0.141 C 
BRANCH  26  27
ATOM     27  C   UNL     1      -3.158  11.694  24.587  0.00  0.00    +0.163 C 
BRANCH  27  28
ATOM     28  O   UNL     1      -4.114  10.624  24.665  0.00  0.00    -0.388 OA
ATOM     29  H   UNL     1      -5.002  10.982  24.595  0.00  0.00    +0.210 HD
ENDBRANCH  27  28
BRANCH  27  30
ATOM     30  C   UNL     1      -3.747  12.905  23.843  0.00  0.00    +0.175 C 
BRANCH  30  31
ATOM     31  C   UNL     1      -4.852  12.496  22.858  0.00  0.00    +0.176 C 
ATOM     32  O   UNL     1      -4.257  11.625  21.856  0.00  0.00    -0.332 OA
ATOM     33  C   UNL     1      -5.191  11.047  20.885  0.00  0.00    +0.277 C 
ATOM     34  C   UNL     1      -6.007  12.164  20.189  0.00  0.00    +0.110 C 
ATOM     35  C   UNL     1      -6.632  13.134  21.212  0.00  0.00    +0.143 C 
ATOM     36  C   UNL     1      -5.574  13.673  22.175  0.00  0.00    +0.133 C 
BRANCH  36  37
ATOM     37  N   UNL     1      -6.195  14.528  23.199  0.00  0.00    -0.308 N 
ATOM     38  H   UNL     1      -6.885  14.110  23.807  0.00  0.00    +0.149 HD
ATOM     39  C   UNL     1      -5.908  15.821  23.376  0.00  0.00    +0.210 C 
ATOM     40  C   UNL     1      -4.872  16.434  22.416  0.00  0.00    +0.109 C 
ATOM     41  O   UNL     1      -6.434  16.509  24.251  0.00  0.00    -0.276 OA
ENDBRANCH  36  37
BRANCH  33  42
ATOM     42  C   UNL     1      -6.153  10.057  21.573  0.00  0.00    +0.414 C 
ATOM     43  O   UNL     1      -7.256   9.820  21.080  0.00  0.00    -0.240 OA
ATOM     44  O   UNL     1      -5.828   9.496  22.620  0.00  0.00    -0.240 OA
ENDBRANCH  33  42
BRANCH  35  45
ATOM     45  O   UNL     1      -7.245  14.228  20.528  0.00  0.00    -0.390 OA
ATOM     46  H   UNL     1      -8.200  14.137  20.569  0.00  0.00    +0.210 HD
ENDBRANCH  35  45
BRANCH  33  47
ATOM     47  O   UNL     1      -4.414  10.352  19.876  0.00  0.00    -0.343 OA
ATOM     48  C   UNL     1      -4.765  10.671  18.505  0.00  0.00    +0.198 C 
ENDBRANCH  33  47
ENDBRANCH  30  31
BRANCH  30  49
ATOM     49  O   UNL     1      -2.703  13.619  23.152  0.00  0.00    -0.387 OA
ATOM     50  H   UNL     1      -2.624  13.282  22.256  0.00  0.00    +0.210 HD
ENDBRANCH  30  49
ENDBRANCH  27  30
ENDBRANCH  26  27
ENDBRANCH   3  26
TORSDOF 18
