REMARK VINA RESULT:    -4.639      4.328      8.896
REMARK INTER + INTRA:         -11.350
REMARK INTER:                  -8.985
REMARK INTRA:                  -2.365
REMARK UNBOUND:                -3.049
REMARK  Name = lig_assembled_28.pdb
REMARK  17 active torsions:
REMARK  status: ('A' for Active; 'I' for Inactive)
REMARK    1  A    between atoms: _2  and  _9
REMARK    2  A    between atoms: _4  and  _22
REMARK    3  A    between atoms: _6  and  _7
REMARK    4  A    between atoms: _6  and  _22
REMARK    5  A    between atoms: _9  and  _10
REMARK    6  A    between atoms: _18  and  _38
REMARK    7  A    between atoms: _20  and  _26
REMARK    8  A    between atoms: _21  and  _25
REMARK    9  A    between atoms: _25  and  _26
REMARK   10  A    between atoms: _28  and  _29
REMARK   11  A    between atoms: _30  and  _31
REMARK   12  A    between atoms: _32  and  _34
REMARK   13  A    between atoms: _34  and  _35
REMARK   14  A    between atoms: _34  and  _36
REMARK   15  A    between atoms: _36  and  _37
REMARK   16  A    between atoms: _36  and  _38
REMARK   17  A    between atoms: _39  and  _41
REMARK                            x       y       z     vdW  Elec       q    Type
REMARK                         _______ _______ _______ _____ _____    ______ ____
ROOT
ATOM      1  C   UNL     1      -3.008  12.151  24.042  0.00  0.00    +0.163 C 
ENDROOT
BRANCH   1   2
ATOM      2  O   UNL     1      -2.068  11.988  25.117  0.00  0.00    -0.388 OA
ATOM      3  H   UNL     1      -2.492  12.208  25.950  0.00  0.00    +0.210 HD
ENDBRANCH   1   2
BRANCH   1   4
ATOM      4  C   UNL     1      -3.949  13.312  24.344  0.00  0.00    +0.141 C 
BRANCH   4   7
ATOM      5  C   UNL     1      -4.876  14.473  22.369  0.00  0.00    +0.401 C 
ATOM      6  O   UNL     1      -3.981  15.321  22.330  0.00  0.00    -0.226 OA
ATOM      7  N   UNL     1      -4.943  13.501  23.280  0.00  0.00    -0.279 N 
ATOM      8  H   UNL     1      -5.721  12.859  23.236  0.00  0.00    +0.152 HD
BRANCH   5   9
ATOM      9  O   UNL     1      -5.918  14.518  21.391  0.00  0.00    -0.444 OA
BRANCH   9  10
ATOM     10  C   UNL     1      -6.649  13.289  21.415  0.00  0.00    +0.292 C 
BRANCH  10  12
ATOM     11  N   UNL     1      -7.224  12.611  19.101  0.00  0.00    -0.131 NA
ATOM     12  C   UNL     1      -6.394  12.516  20.185  0.00  0.00    +0.120 A 
ATOM     13  C   UNL     1      -5.360  11.658  19.885  0.00  0.00    +0.137 A 
ATOM     14  N   UNL     1      -5.562  11.339  18.572  0.00  0.00    -0.247 N 
ATOM     15  N   UNL     1      -6.712  11.876  18.122  0.00  0.00    -0.065 NA
BRANCH  14  16
ATOM     16  C   UNL     1      -4.707  10.625  17.633  0.00  0.00    +0.180 C 
BRANCH  16  17
ATOM     17  C   UNL     1      -4.548  11.325  16.304  0.00  0.00    -0.022 A 
ATOM     18  C   UNL     1      -5.020  10.720  15.125  0.00  0.00    +0.055 A 
ATOM     19  C   UNL     1      -4.956  11.446  13.955  0.00  0.00    +0.167 A 
ATOM     20  O   UNL     1      -5.417  11.034  12.742  0.00  0.00    -0.453 OA
ATOM     21  C   UNL     1      -5.203  12.226  11.957  0.00  0.00    +0.466 C 
ATOM     22  O   UNL     1      -4.489  13.260  12.669  0.00  0.00    -0.453 OA
ATOM     23  C   UNL     1      -4.427  12.711  13.912  0.00  0.00    +0.166 A 
ATOM     24  C   UNL     1      -3.923  13.324  15.039  0.00  0.00    +0.050 A 
ATOM     25  C   UNL     1      -3.992  12.624  16.247  0.00  0.00    +0.009 A 
ENDBRANCH  16  17
ENDBRANCH  14  16
ENDBRANCH  10  12
ENDBRANCH   9  10
ENDBRANCH   5   9
ENDBRANCH   4   7
ENDBRANCH   1   4
BRANCH   1  26
ATOM     26  C   UNL     1      -3.828  10.867  23.830  0.00  0.00    +0.175 C 
BRANCH  26  27
ATOM     27  C   UNL     1      -3.994  10.065  25.129  0.00  0.00    +0.176 C 
ATOM     28  O   UNL     1      -2.905   9.104  25.204  0.00  0.00    -0.332 OA
ATOM     29  C   UNL     1      -2.839   8.315  26.438  0.00  0.00    +0.277 C 
ATOM     30  C   UNL     1      -4.188   7.599  26.694  0.00  0.00    +0.110 C 
ATOM     31  C   UNL     1      -5.379   8.575  26.594  0.00  0.00    +0.143 C 
ATOM     32  C   UNL     1      -5.348   9.345  25.273  0.00  0.00    +0.133 C 
BRANCH  32  33
ATOM     33  N   UNL     1      -6.437  10.333  25.226  0.00  0.00    -0.308 N 
ATOM     34  H   UNL     1      -6.501  11.001  25.981  0.00  0.00    +0.149 HD
ATOM     35  C   UNL     1      -7.348  10.404  24.251  0.00  0.00    +0.210 C 
ATOM     36  C   UNL     1      -7.239   9.354  23.129  0.00  0.00    +0.109 C 
ATOM     37  O   UNL     1      -8.241  11.251  24.231  0.00  0.00    -0.276 OA
ENDBRANCH  32  33
BRANCH  29  38
ATOM     38  C   UNL     1      -2.495   9.214  27.644  0.00  0.00    +0.414 C 
ATOM     39  O   UNL     1      -2.887   8.916  28.771  0.00  0.00    -0.240 OA
ATOM     40  O   UNL     1      -1.826  10.237  27.489  0.00  0.00    -0.240 OA
ENDBRANCH  29  38
BRANCH  29  41
ATOM     41  O   UNL     1      -1.810   7.307  26.271  0.00  0.00    -0.343 OA
ATOM     42  C   UNL     1      -2.122   6.013  26.848  0.00  0.00    +0.198 C 
ENDBRANCH  29  41
BRANCH  31  43
ATOM     43  O   UNL     1      -6.606   7.849  26.686  0.00  0.00    -0.390 OA
ATOM     44  H   UNL     1      -6.929   7.653  25.803  0.00  0.00    +0.210 HD
ENDBRANCH  31  43
ENDBRANCH  26  27
BRANCH  26  45
ATOM     45  O   UNL     1      -3.213  10.047  22.815  0.00  0.00    -0.387 OA
ATOM     46  H   UNL     1      -3.728   9.246  22.696  0.00  0.00    +0.210 HD
ENDBRANCH  26  45
ENDBRANCH   1  26
TORSDOF 15
