REMARK VINA RESULT:    -5.307      1.817      2.714
REMARK INTER + INTRA:         -11.941
REMARK INTER:                  -8.990
REMARK INTRA:                  -2.951
REMARK UNBOUND:                -2.447
REMARK  Name = lig_assembled_85.pdb
REMARK  19 active torsions:
REMARK  status: ('A' for Active; 'I' for Inactive)
REMARK    1  A    between atoms: _2  and  _10
REMARK    2  A    between atoms: _3  and  _6
REMARK    3  A    between atoms: _3  and  _17
REMARK    4  A    between atoms: _5  and  _23
REMARK    5  A    between atoms: _7  and  _8
REMARK    6  A    between atoms: _7  and  _23
REMARK    7  A    between atoms: _15  and  _16
REMARK    8  A    between atoms: _19  and  _39
REMARK    9  A    between atoms: _21  and  _27
REMARK   10  A    between atoms: _22  and  _26
REMARK   11  A    between atoms: _26  and  _27
REMARK   12  A    between atoms: _29  and  _30
REMARK   13  A    between atoms: _31  and  _32
REMARK   14  A    between atoms: _33  and  _35
REMARK   15  A    between atoms: _35  and  _36
REMARK   16  A    between atoms: _35  and  _37
REMARK   17  A    between atoms: _37  and  _38
REMARK   18  A    between atoms: _37  and  _39
REMARK   19  A    between atoms: _40  and  _42
REMARK                            x       y       z     vdW  Elec       q    Type
REMARK                         _______ _______ _______ _____ _____    ______ ____
ROOT
ATOM      1  C   UNL     1      -7.015   8.937  21.941  0.00  0.00    +0.141 C 
ENDROOT
BRANCH   1   4
ATOM      2  C   UNL     1      -6.442   9.865  19.724  0.00  0.00    +0.401 C 
ATOM      3  O   UNL     1      -5.652   8.961  19.445  0.00  0.00    -0.226 OA
ATOM      4  N   UNL     1      -7.118   9.937  20.871  0.00  0.00    -0.279 N 
ATOM      5  H   UNL     1      -7.737  10.723  21.012  0.00  0.00    +0.152 HD
BRANCH   2   6
ATOM      6  O   UNL     1      -6.660  10.914  18.777  0.00  0.00    -0.444 OA
BRANCH   6   7
ATOM      7  C   UNL     1      -6.565  10.387  17.451  0.00  0.00    +0.292 C 
BRANCH   7   9
ATOM      8  N   UNL     1      -4.427  11.594  17.200  0.00  0.00    -0.131 NA
ATOM      9  C   UNL     1      -5.607  11.175  16.656  0.00  0.00    +0.121 A 
ATOM     10  C   UNL     1      -5.663  11.559  15.336  0.00  0.00    +0.143 A 
ATOM     11  N   UNL     1      -4.477  12.215  15.114  0.00  0.00    -0.219 N 
ATOM     12  N   UNL     1      -3.734  12.202  16.247  0.00  0.00    -0.060 NA
BRANCH  11  13
ATOM     13  C   UNL     1      -3.958  12.758  13.919  0.00  0.00    +0.080 A 
ATOM     14  C   UNL     1      -3.272  12.014  12.947  0.00  0.00    +0.062 A 
ATOM     15  C   UNL     1      -2.594  12.727  11.931  0.00  0.00    +0.016 A 
ATOM     16  C   UNL     1      -2.617  14.125  11.866  0.00  0.00    +0.021 A 
ATOM     17  C   UNL     1      -3.362  14.837  12.794  0.00  0.00    +0.043 A 
ATOM     18 CL   UNL     1      -3.373  16.556  12.751  0.00  0.00    -0.083 Cl
ATOM     19  C   UNL     1      -4.051  14.164  13.798  0.00  0.00    +0.048 A 
BRANCH  14  20
ATOM     20  C   UNL     1      -3.082  10.535  12.869  0.00  0.00    +0.248 C 
ATOM     21  O   UNL     1      -1.976  10.131  13.238  0.00  0.00    -0.270 OA
ATOM     22  N   UNL     1      -4.038   9.651  12.357  0.00  0.00    -0.304 N 
ATOM     23  C   UNL     1      -5.422   9.939  12.003  0.00  0.00    +0.132 C 
ATOM     24  C   UNL     1      -3.675   8.237  12.348  0.00  0.00    +0.132 C 
ENDBRANCH  14  20
ENDBRANCH  11  13
ENDBRANCH   7   9
ENDBRANCH   6   7
ENDBRANCH   2   6
ENDBRANCH   1   4
BRANCH   1  25
ATOM     25  C   UNL     1      -6.239   9.467  23.142  0.00  0.00    +0.163 C 
BRANCH  25  26
ATOM     26  O   UNL     1      -7.001   9.274  24.345  0.00  0.00    -0.388 OA
ATOM     27  H   UNL     1      -6.434   8.909  25.029  0.00  0.00    +0.210 HD
ENDBRANCH  25  26
BRANCH  25  28
ATOM     28  C   UNL     1      -4.879   8.753  23.232  0.00  0.00    +0.175 C 
BRANCH  28  29
ATOM     29  C   UNL     1      -3.871   9.535  24.087  0.00  0.00    +0.176 C 
ATOM     30  O   UNL     1      -4.278   9.419  25.478  0.00  0.00    -0.332 OA
ATOM     31  C   UNL     1      -3.368  10.019  26.458  0.00  0.00    +0.277 C 
ATOM     32  C   UNL     1      -3.105  11.505  26.112  0.00  0.00    +0.110 C 
ATOM     33  C   UNL     1      -2.699  11.683  24.634  0.00  0.00    +0.143 C 
ATOM     34  C   UNL     1      -3.714  11.018  23.702  0.00  0.00    +0.133 C 
BRANCH  34  35
ATOM     35  N   UNL     1      -3.271  11.119  22.303  0.00  0.00    -0.308 N 
ATOM     36  H   UNL     1      -2.485  10.554  22.015  0.00  0.00    +0.149 HD
ATOM     37  C   UNL     1      -3.841  11.908  21.388  0.00  0.00    +0.210 C 
ATOM     38  C   UNL     1      -5.021  12.776  21.865  0.00  0.00    +0.109 C 
ATOM     39  O   UNL     1      -3.458  11.961  20.219  0.00  0.00    -0.276 OA
ENDBRANCH  34  35
BRANCH  31  40
ATOM     40  C   UNL     1      -2.029   9.255  26.500  0.00  0.00    +0.414 C 
ATOM     41  O   UNL     1      -2.011   8.028  26.403  0.00  0.00    -0.240 OA
ATOM     42  O   UNL     1      -0.966   9.864  26.631  0.00  0.00    -0.240 OA
ENDBRANCH  31  40
BRANCH  33  43
ATOM     43  O   UNL     1      -2.615  13.074  24.321  0.00  0.00    -0.390 OA
ATOM     44  H   UNL     1      -2.255  13.550  25.073  0.00  0.00    +0.210 HD
ENDBRANCH  33  43
BRANCH  31  45
ATOM     45  O   UNL     1      -4.006   9.958  27.759  0.00  0.00    -0.343 OA
ATOM     46  C   UNL     1      -5.354  10.491  27.806  0.00  0.00    +0.198 C 
ENDBRANCH  31  45
ENDBRANCH  28  29
BRANCH  28  47
ATOM     47  O   UNL     1      -4.345   8.533  21.911  0.00  0.00    -0.387 OA
ATOM     48  H   UNL     1      -3.926   9.338  21.597  0.00  0.00    +0.210 HD
ENDBRANCH  28  47
ENDBRANCH  25  28
ENDBRANCH   1  25
TORSDOF 15
