REMARK VINA RESULT:    -4.035      2.743      7.282
REMARK INTER + INTRA:         -12.802
REMARK INTER:                  -8.193
REMARK INTRA:                  -4.609
REMARK UNBOUND:                -4.638
REMARK  Name = lig_assembled_11.pdb
REMARK  22 active torsions:
REMARK  status: ('A' for Active; 'I' for Inactive)
REMARK    1  A    between atoms: _2  and  _9
REMARK    2  A    between atoms: _4  and  _21
REMARK    3  A    between atoms: _5  and  _9
REMARK    4  A    between atoms: _5  and  _13
REMARK    5  A    between atoms: _6  and  _7
REMARK    6  A    between atoms: _6  and  _21
REMARK    7  A    between atoms: _9  and  _10
REMARK    8  A    between atoms: _10  and  _11
REMARK    9  A    between atoms: _11  and  _12
REMARK   10  A    between atoms: _12  and  _15
REMARK   11  A    between atoms: _17  and  _37
REMARK   12  A    between atoms: _19  and  _25
REMARK   13  A    between atoms: _20  and  _24
REMARK   14  A    between atoms: _24  and  _25
REMARK   15  A    between atoms: _27  and  _28
REMARK   16  A    between atoms: _29  and  _30
REMARK   17  A    between atoms: _31  and  _33
REMARK   18  A    between atoms: _33  and  _34
REMARK   19  A    between atoms: _33  and  _35
REMARK   20  A    between atoms: _35  and  _36
REMARK   21  A    between atoms: _35  and  _37
REMARK   22  A    between atoms: _38  and  _40
REMARK                            x       y       z     vdW  Elec       q    Type
REMARK                         _______ _______ _______ _____ _____    ______ ____
ROOT
ATOM      1  C   UNL     1      -6.011  12.626  26.298  0.00  0.00    +0.163 C 
ENDROOT
BRANCH   1   2
ATOM      2  O   UNL     1      -4.882  12.749  25.418  0.00  0.00    -0.388 OA
ATOM      3  H   UNL     1      -4.973  13.546  24.890  0.00  0.00    +0.210 HD
ENDBRANCH   1   2
BRANCH   1   4
ATOM      4  C   UNL     1      -5.555  12.386  27.748  0.00  0.00    +0.175 C 
BRANCH   4   5
ATOM      5  C   UNL     1      -4.346  11.442  27.824  0.00  0.00    +0.176 C 
ATOM      6  O   UNL     1      -4.526  10.403  26.823  0.00  0.00    -0.332 OA
ATOM      7  C   UNL     1      -3.410   9.463  26.677  0.00  0.00    +0.277 C 
ATOM      8  C   UNL     1      -3.062   8.820  28.042  0.00  0.00    +0.110 C 
ATOM      9  C   UNL     1      -2.893   9.885  29.146  0.00  0.00    +0.143 C 
ATOM     10  C   UNL     1      -4.109  10.810  29.208  0.00  0.00    +0.133 C 
BRANCH  10  11
ATOM     11  N   UNL     1      -3.898  11.873  30.204  0.00  0.00    -0.308 N 
ATOM     12  H   UNL     1      -3.209  12.582  29.998  0.00  0.00    +0.149 HD
ATOM     13  C   UNL     1      -4.557  11.960  31.363  0.00  0.00    +0.210 C 
ATOM     14  C   UNL     1      -5.581  10.848  31.659  0.00  0.00    +0.109 C 
ATOM     15  O   UNL     1      -4.370  12.870  32.171  0.00  0.00    -0.276 OA
ENDBRANCH  10  11
BRANCH   7  16
ATOM     16  C   UNL     1      -2.165  10.177  26.111  0.00  0.00    +0.414 C 
ATOM     17  O   UNL     1      -2.287  11.211  25.457  0.00  0.00    -0.240 OA
ATOM     18  O   UNL     1      -1.039   9.718  26.308  0.00  0.00    -0.240 OA
ENDBRANCH   7  16
BRANCH   7  19
ATOM     19  O   UNL     1      -3.826   8.411  25.769  0.00  0.00    -0.343 OA
ATOM     20  C   UNL     1      -4.700   7.411  26.350  0.00  0.00    +0.198 C 
ENDBRANCH   7  19
BRANCH   9  21
ATOM     21  O   UNL     1      -2.724   9.245  30.412  0.00  0.00    -0.390 OA
ATOM     22  H   UNL     1      -1.852   8.845  30.455  0.00  0.00    +0.210 HD
ENDBRANCH   9  21
ENDBRANCH   4   5
BRANCH   4  23
ATOM     23  O   UNL     1      -6.646  11.860  28.531  0.00  0.00    -0.387 OA
ATOM     24  H   UNL     1      -6.445  11.956  29.465  0.00  0.00    +0.210 HD
ENDBRANCH   4  23
ENDBRANCH   1   4
BRANCH   1  25
ATOM     25  C   UNL     1      -6.862  13.891  26.235  0.00  0.00    +0.141 C 
BRANCH  25  28
ATOM     26  C   UNL     1      -6.985  15.555  24.413  0.00  0.00    +0.401 C 
ATOM     27  O   UNL     1      -8.189  15.383  24.210  0.00  0.00    -0.226 OA
ATOM     28  N   UNL     1      -6.283  14.896  25.335  0.00  0.00    -0.279 N 
ATOM     29  H   UNL     1      -5.297  15.099  25.420  0.00  0.00    +0.152 HD
BRANCH  26  30
ATOM     30  O   UNL     1      -6.276  16.511  23.620  0.00  0.00    -0.444 OA
BRANCH  30  31
ATOM     31  C   UNL     1      -6.200  16.048  22.268  0.00  0.00    +0.292 C 
BRANCH  31  33
ATOM     32  N   UNL     1      -4.357  14.512  22.876  0.00  0.00    -0.131 NA
ATOM     33  C   UNL     1      -5.531  14.736  22.211  0.00  0.00    +0.120 A 
ATOM     34  C   UNL     1      -5.902  13.583  21.558  0.00  0.00    +0.138 A 
ATOM     35  N   UNL     1      -4.894  12.702  21.827  0.00  0.00    -0.238 N 
ATOM     36  N   UNL     1      -3.982  13.260  22.646  0.00  0.00    -0.065 NA
BRANCH  35  37
ATOM     37  C   UNL     1      -4.756  11.290  21.488  0.00  0.00    +0.217 C 
BRANCH  37  38
ATOM     38  C   UNL     1      -4.080  10.462  22.571  0.00  0.00    +0.330 C 
ATOM     39  O   UNL     1      -3.042   9.830  22.445  0.00  0.00    -0.249 OA
BRANCH  38  40
ATOM     40  O   UNL     1      -4.741  10.458  23.756  0.00  0.00    -0.479 OA
ATOM     41  H   UNL     1      -4.205  10.353  24.566  0.00  0.00    +0.295 HD
ENDBRANCH  38  40
ENDBRANCH  37  38
BRANCH  37  42
ATOM     42  C   UNL     1      -4.114  11.092  20.103  0.00  0.00    +0.049 C 
BRANCH  42  43
ATOM     43  C   UNL     1      -4.903  10.186  19.149  0.00  0.00    +0.123 C 
BRANCH  43  44
ATOM     44  C   UNL     1      -6.081  10.922  18.553  0.00  0.00    +0.305 C 
ATOM     45  O   UNL     1      -7.170  10.423  18.326  0.00  0.00    -0.251 OA
BRANCH  44  46
ATOM     46  O   UNL     1      -5.798  12.213  18.268  0.00  0.00    -0.481 OA
ATOM     47  H   UNL     1      -6.503  12.844  18.505  0.00  0.00    +0.295 HD
ENDBRANCH  44  46
ENDBRANCH  43  44
ENDBRANCH  42  43
ENDBRANCH  37  42
ENDBRANCH  35  37
ENDBRANCH  31  33
ENDBRANCH  30  31
ENDBRANCH  26  30
ENDBRANCH  25  28
ENDBRANCH   1  25
TORSDOF 20
