REMARK VINA RESULT:    -5.147      4.244      8.652
REMARK INTER + INTRA:         -12.258
REMARK INTER:                  -9.486
REMARK INTRA:                  -2.772
REMARK UNBOUND:                -3.049
REMARK  Name = lig_assembled_28.pdb
REMARK  17 active torsions:
REMARK  status: ('A' for Active; 'I' for Inactive)
REMARK    1  A    between atoms: _2  and  _9
REMARK    2  A    between atoms: _4  and  _22
REMARK    3  A    between atoms: _6  and  _7
REMARK    4  A    between atoms: _6  and  _22
REMARK    5  A    between atoms: _9  and  _10
REMARK    6  A    between atoms: _18  and  _38
REMARK    7  A    between atoms: _20  and  _26
REMARK    8  A    between atoms: _21  and  _25
REMARK    9  A    between atoms: _25  and  _26
REMARK   10  A    between atoms: _28  and  _29
REMARK   11  A    between atoms: _30  and  _31
REMARK   12  A    between atoms: _32  and  _34
REMARK   13  A    between atoms: _34  and  _35
REMARK   14  A    between atoms: _34  and  _36
REMARK   15  A    between atoms: _36  and  _37
REMARK   16  A    between atoms: _36  and  _38
REMARK   17  A    between atoms: _39  and  _41
REMARK                            x       y       z     vdW  Elec       q    Type
REMARK                         _______ _______ _______ _____ _____    ______ ____
ROOT
ATOM      1  C   UNL     1      -2.841  11.857  23.824  0.00  0.00    +0.163 C 
ENDROOT
BRANCH   1   2
ATOM      2  O   UNL     1      -2.139  12.057  25.062  0.00  0.00    -0.388 OA
ATOM      3  H   UNL     1      -2.323  11.326  25.657  0.00  0.00    +0.210 HD
ENDBRANCH   1   2
BRANCH   1   4
ATOM      4  C   UNL     1      -3.594  13.127  23.440  0.00  0.00    +0.141 C 
BRANCH   4   7
ATOM      5  C   UNL     1      -5.749  13.312  22.246  0.00  0.00    +0.401 C 
ATOM      6  O   UNL     1      -6.319  13.895  23.172  0.00  0.00    -0.226 OA
ATOM      7  N   UNL     1      -4.478  12.911  22.288  0.00  0.00    -0.279 N 
ATOM      8  H   UNL     1      -4.102  12.432  21.482  0.00  0.00    +0.152 HD
BRANCH   5   9
ATOM      9  O   UNL     1      -6.477  13.035  21.047  0.00  0.00    -0.444 OA
BRANCH   9  10
ATOM     10  C   UNL     1      -7.093  11.749  21.148  0.00  0.00    +0.292 C 
BRANCH  10  12
ATOM     11  N   UNL     1      -5.318  10.066  20.744  0.00  0.00    -0.131 NA
ATOM     12  C   UNL     1      -6.395  10.776  20.286  0.00  0.00    +0.120 A 
ATOM     13  C   UNL     1      -6.670  10.392  18.994  0.00  0.00    +0.137 A 
ATOM     14  N   UNL     1      -5.789   9.376  18.753  0.00  0.00    -0.247 N 
ATOM     15  N   UNL     1      -4.946   9.220  19.792  0.00  0.00    -0.065 NA
BRANCH  14  16
ATOM     16  C   UNL     1      -5.709   8.440  17.640  0.00  0.00    +0.180 C 
BRANCH  16  17
ATOM     17  C   UNL     1      -4.543   8.696  16.714  0.00  0.00    -0.022 A 
ATOM     18  C   UNL     1      -3.787   7.619  16.216  0.00  0.00    +0.055 A 
ATOM     19  C   UNL     1      -2.807   7.892  15.286  0.00  0.00    +0.167 A 
ATOM     20  O   UNL     1      -2.025   6.967  14.664  0.00  0.00    -0.453 OA
ATOM     21  C   UNL     1      -1.307   7.806  13.736  0.00  0.00    +0.466 C 
ATOM     22  O   UNL     1      -1.559   9.215  13.923  0.00  0.00    -0.453 OA
ATOM     23  C   UNL     1      -2.539   9.171  14.865  0.00  0.00    +0.166 A 
ATOM     24  C   UNL     1      -3.235  10.256  15.357  0.00  0.00    +0.050 A 
ATOM     25  C   UNL     1      -4.251  10.011  16.285  0.00  0.00    +0.009 A 
ENDBRANCH  16  17
ENDBRANCH  14  16
ENDBRANCH  10  12
ENDBRANCH   9  10
ENDBRANCH   5   9
ENDBRANCH   4   7
ENDBRANCH   1   4
BRANCH   1  26
ATOM     26  C   UNL     1      -3.833  10.686  23.937  0.00  0.00    +0.175 C 
BRANCH  26  27
ATOM     27  C   UNL     1      -3.803  10.035  25.328  0.00  0.00    +0.176 C 
ATOM     28  O   UNL     1      -2.870   8.921  25.280  0.00  0.00    -0.332 OA
ATOM     29  C   UNL     1      -2.630   8.240  26.556  0.00  0.00    +0.277 C 
ATOM     30  C   UNL     1      -3.968   7.776  27.181  0.00  0.00    +0.110 C 
ATOM     31  C   UNL     1      -5.003   8.919  27.225  0.00  0.00    +0.143 C 
ATOM     32  C   UNL     1      -5.172   9.559  25.846  0.00  0.00    +0.133 C 
BRANCH  32  33
ATOM     33  N   UNL     1      -6.095  10.703  25.918  0.00  0.00    -0.308 N 
ATOM     34  H   UNL     1      -5.874  11.447  26.564  0.00  0.00    +0.149 HD
ATOM     35  C   UNL     1      -7.206  10.821  25.186  0.00  0.00    +0.210 C 
ATOM     36  C   UNL     1      -7.529   9.657  24.231  0.00  0.00    +0.109 C 
ATOM     37  O   UNL     1      -7.953  11.797  25.257  0.00  0.00    -0.276 OA
ENDBRANCH  32  33
BRANCH  29  38
ATOM     38  C   UNL     1      -1.894   9.170  27.542  0.00  0.00    +0.414 C 
ATOM     39  O   UNL     1      -0.985   9.899  27.147  0.00  0.00    -0.240 OA
ATOM     40  O   UNL     1      -2.210   9.192  28.733  0.00  0.00    -0.240 OA
ENDBRANCH  29  38
BRANCH  29  41
ATOM     41  O   UNL     1      -1.817   7.067  26.292  0.00  0.00    -0.343 OA
ATOM     42  C   UNL     1      -2.563   5.853  26.021  0.00  0.00    +0.198 C 
ENDBRANCH  29  41
BRANCH  31  43
ATOM     43  O   UNL     1      -6.263   8.412  27.666  0.00  0.00    -0.390 OA
ATOM     44  H   UNL     1      -6.561   7.726  27.064  0.00  0.00    +0.210 HD
ENDBRANCH  31  43
ENDBRANCH  26  27
BRANCH  26  45
ATOM     45  O   UNL     1      -3.555   9.701  22.922  0.00  0.00    -0.387 OA
ATOM     46  H   UNL     1      -2.669   9.353  23.046  0.00  0.00    +0.210 HD
ENDBRANCH  26  45
ENDBRANCH   1  26
TORSDOF 15
