REMARK VINA RESULT:    -4.367      4.132     12.343
REMARK INTER + INTRA:         -10.916
REMARK INTER:                  -8.471
REMARK INTRA:                  -2.445
REMARK UNBOUND:                -3.358
REMARK  Name = lig_assembled_42.pdb
REMARK  16 active torsions:
REMARK  status: ('A' for Active; 'I' for Inactive)
REMARK    1  A    between atoms: _2  and  _9
REMARK    2  A    between atoms: _4  and  _21
REMARK    3  A    between atoms: _6  and  _7
REMARK    4  A    between atoms: _6  and  _21
REMARK    5  A    between atoms: _17  and  _37
REMARK    6  A    between atoms: _19  and  _25
REMARK    7  A    between atoms: _20  and  _24
REMARK    8  A    between atoms: _24  and  _25
REMARK    9  A    between atoms: _27  and  _28
REMARK   10  A    between atoms: _29  and  _30
REMARK   11  A    between atoms: _31  and  _33
REMARK   12  A    between atoms: _33  and  _34
REMARK   13  A    between atoms: _33  and  _35
REMARK   14  A    between atoms: _35  and  _36
REMARK   15  A    between atoms: _35  and  _37
REMARK   16  A    between atoms: _38  and  _40
REMARK                            x       y       z     vdW  Elec       q    Type
REMARK                         _______ _______ _______ _____ _____    ______ ____
ROOT
ATOM      1  C   UNL     1      -5.394   8.925  25.289  0.00  0.00    +0.163 C 
ENDROOT
BRANCH   1   2
ATOM      2  O   UNL     1      -6.423   8.108  25.873  0.00  0.00    -0.388 OA
ATOM      3  H   UNL     1      -6.203   7.922  26.789  0.00  0.00    +0.210 HD
ENDBRANCH   1   2
BRANCH   1   4
ATOM      4  C   UNL     1      -5.262   8.614  23.802  0.00  0.00    +0.141 C 
BRANCH   4   7
ATOM      5  C   UNL     1      -4.170  10.237  22.293  0.00  0.00    +0.401 C 
ATOM      6  O   UNL     1      -3.094   9.634  22.269  0.00  0.00    -0.226 OA
ATOM      7  N   UNL     1      -5.235   9.835  22.987  0.00  0.00    -0.279 N 
ATOM      8  H   UNL     1      -6.070  10.402  22.952  0.00  0.00    +0.152 HD
BRANCH   5   9
ATOM      9  O   UNL     1      -4.305  11.445  21.540  0.00  0.00    -0.444 OA
BRANCH   9  10
ATOM     10  C   UNL     1      -5.593  11.480  20.919  0.00  0.00    +0.292 C 
BRANCH  10  12
ATOM     11  N   UNL     1      -6.371  12.296  18.709  0.00  0.00    -0.131 NA
ATOM     12  C   UNL     1      -5.458  11.610  19.456  0.00  0.00    +0.121 A 
ATOM     13  C   UNL     1      -4.483  11.115  18.625  0.00  0.00    +0.143 A 
ATOM     14  N   UNL     1      -4.841  11.527  17.363  0.00  0.00    -0.220 N 
ATOM     15  N   UNL     1      -5.991  12.242  17.438  0.00  0.00    -0.060 NA
BRANCH  14  16
ATOM     16  C   UNL     1      -4.174  11.282  16.137  0.00  0.00    +0.071 A 
ATOM     17  C   UNL     1      -3.850  12.351  15.288  0.00  0.00    +0.077 A 
ATOM     18  C   UNL     1      -3.201  12.061  14.107  0.00  0.00    +0.168 A 
ATOM     19  O   UNL     1      -2.815  12.978  13.181  0.00  0.00    -0.453 OA
ATOM     20  C   UNL     1      -2.198  12.122  12.197  0.00  0.00    +0.466 C 
ATOM     21  O   UNL     1      -2.237  10.722  12.550  0.00  0.00    -0.453 OA
ATOM     22  C   UNL     1      -2.872  10.776  13.751  0.00  0.00    +0.166 A 
ATOM     23  C   UNL     1      -3.176   9.701  14.558  0.00  0.00    +0.051 A 
ATOM     24  C   UNL     1      -3.836   9.957  15.768  0.00  0.00    +0.031 A 
ENDBRANCH  14  16
ENDBRANCH  10  12
ENDBRANCH   9  10
ENDBRANCH   5   9
ENDBRANCH   4   7
ENDBRANCH   1   4
BRANCH   1  25
ATOM     25  C   UNL     1      -4.043   8.689  25.985  0.00  0.00    +0.175 C 
BRANCH  25  26
ATOM     26  C   UNL     1      -3.956   9.412  27.338  0.00  0.00    +0.176 C 
ATOM     27  O   UNL     1      -4.841   8.729  28.267  0.00  0.00    -0.332 OA
ATOM     28  C   UNL     1      -4.810   9.219  29.649  0.00  0.00    +0.277 C 
ATOM     29  C   UNL     1      -5.082  10.743  29.689  0.00  0.00    +0.110 C 
ATOM     30  C   UNL     1      -4.185  11.508  28.693  0.00  0.00    +0.143 C 
ATOM     31  C   UNL     1      -4.293  10.913  27.289  0.00  0.00    +0.133 C 
BRANCH  31  32
ATOM     32  N   UNL     1      -3.370  11.595  26.368  0.00  0.00    -0.308 N 
ATOM     33  H   UNL     1      -2.383  11.399  26.460  0.00  0.00    +0.149 HD
ATOM     34  C   UNL     1      -3.751  12.455  25.420  0.00  0.00    +0.210 C 
ATOM     35  C   UNL     1      -5.259  12.752  25.323  0.00  0.00    +0.109 C 
ATOM     36  O   UNL     1      -2.956  13.000  24.653  0.00  0.00    -0.276 OA
ENDBRANCH  31  32
BRANCH  28  37
ATOM     37  C   UNL     1      -3.444   8.922  30.303  0.00  0.00    +0.414 C 
ATOM     38  O   UNL     1      -2.832   7.893  30.020  0.00  0.00    -0.240 OA
ATOM     39  O   UNL     1      -2.955   9.710  31.113  0.00  0.00    -0.240 OA
ENDBRANCH  28  37
BRANCH  30  40
ATOM     40  O   UNL     1      -4.573  12.882  28.654  0.00  0.00    -0.390 OA
ATOM     41  H   UNL     1      -3.868  13.425  29.014  0.00  0.00    +0.210 HD
ENDBRANCH  30  40
BRANCH  28  42
ATOM     42  O   UNL     1      -5.862   8.546  30.388  0.00  0.00    -0.343 OA
ATOM     43  C   UNL     1      -6.799   7.798  29.574  0.00  0.00    +0.198 C 
ENDBRANCH  28  42
ENDBRANCH  25  26
BRANCH  25  44
ATOM     44  O   UNL     1      -2.963   9.108  25.128  0.00  0.00    -0.387 OA
ATOM     45  H   UNL     1      -2.667   9.983  25.389  0.00  0.00    +0.210 HD
ENDBRANCH  25  44
ENDBRANCH   1  25
TORSDOF 14
