REMARK VINA RESULT:    -4.636      6.208      9.908
REMARK INTER + INTRA:         -11.000
REMARK INTER:                  -9.076
REMARK INTRA:                  -1.924
REMARK UNBOUND:                -2.299
REMARK  Name = lig_assembled_32.pdb
REMARK  19 active torsions:
REMARK  status: ('A' for Active; 'I' for Inactive)
REMARK    1  A    between atoms: _2  and  _9
REMARK    2  A    between atoms: _4  and  _17
REMARK    3  A    between atoms: _5  and  _10
REMARK    4  A    between atoms: _5  and  _11
REMARK    5  A    between atoms: _6  and  _7
REMARK    6  A    between atoms: _6  and  _17
REMARK    7  A    between atoms: _9  and  _10
REMARK    8  A    between atoms: _13  and  _33
REMARK    9  A    between atoms: _15  and  _21
REMARK   10  A    between atoms: _16  and  _20
REMARK   11  A    between atoms: _20  and  _21
REMARK   12  A    between atoms: _23  and  _24
REMARK   13  A    between atoms: _25  and  _26
REMARK   14  A    between atoms: _27  and  _29
REMARK   15  A    between atoms: _29  and  _30
REMARK   16  A    between atoms: _29  and  _31
REMARK   17  A    between atoms: _31  and  _32
REMARK   18  A    between atoms: _31  and  _33
REMARK   19  A    between atoms: _34  and  _36
REMARK                            x       y       z     vdW  Elec       q    Type
REMARK                         _______ _______ _______ _____ _____    ______ ____
ROOT
ATOM      1  C   UNL     1      -4.909  11.696  21.022  0.00  0.00    +0.163 C 
ENDROOT
BRANCH   1   2
ATOM      2  O   UNL     1      -5.334  10.323  21.013  0.00  0.00    -0.388 OA
ATOM      3  H   UNL     1      -6.213  10.262  20.631  0.00  0.00    +0.210 HD
ENDBRANCH   1   2
BRANCH   1   4
ATOM      4  C   UNL     1      -3.555  11.847  21.735  0.00  0.00    +0.175 C 
BRANCH   4   5
ATOM      5  C   UNL     1      -3.718  12.051  23.249  0.00  0.00    +0.176 C 
ATOM      6  O   UNL     1      -4.120  10.780  23.830  0.00  0.00    -0.332 OA
ATOM      7  C   UNL     1      -4.222  10.756  25.292  0.00  0.00    +0.277 C 
ATOM      8  C   UNL     1      -5.166  11.880  25.787  0.00  0.00    +0.110 C 
ATOM      9  C   UNL     1      -4.797  13.245  25.171  0.00  0.00    +0.143 C 
ATOM     10  C   UNL     1      -4.715  13.155  23.646  0.00  0.00    +0.133 C 
BRANCH  10  11
ATOM     11  N   UNL     1      -4.278  14.440  23.077  0.00  0.00    -0.308 N 
ATOM     12  H   UNL     1      -3.326  14.731  23.246  0.00  0.00    +0.149 HD
ATOM     13  C   UNL     1      -5.058  15.245  22.351  0.00  0.00    +0.210 C 
ATOM     14  C   UNL     1      -6.512  14.785  22.132  0.00  0.00    +0.109 C 
ATOM     15  O   UNL     1      -4.661  16.309  21.874  0.00  0.00    -0.276 OA
ENDBRANCH  10  11
BRANCH   7  16
ATOM     16  C   UNL     1      -2.833  10.926  25.941  0.00  0.00    +0.414 C 
ATOM     17  O   UNL     1      -2.713  11.550  26.995  0.00  0.00    -0.240 OA
ATOM     18  O   UNL     1      -1.833  10.441  25.411  0.00  0.00    -0.240 OA
ENDBRANCH   7  16
BRANCH   7  19
ATOM     19  O   UNL     1      -4.789   9.478  25.681  0.00  0.00    -0.343 OA
ATOM     20  C   UNL     1      -4.872   8.496  24.618  0.00  0.00    +0.198 C 
ENDBRANCH   7  19
BRANCH   9  21
ATOM     21  O   UNL     1      -5.778  14.218  25.532  0.00  0.00    -0.390 OA
ATOM     22  H   UNL     1      -5.598  15.041  25.073  0.00  0.00    +0.210 HD
ENDBRANCH   9  21
ENDBRANCH   4   5
BRANCH   4  23
ATOM     23  O   UNL     1      -2.812  12.943  21.164  0.00  0.00    -0.387 OA
ATOM     24  H   UNL     1      -2.853  13.699  21.754  0.00  0.00    +0.210 HD
ENDBRANCH   4  23
ENDBRANCH   1   4
BRANCH   1  25
ATOM     25  C   UNL     1      -4.794  12.216  19.593  0.00  0.00    +0.141 C 
BRANCH  25  28
ATOM     26  C   UNL     1      -5.293  11.262  17.369  0.00  0.00    +0.401 C 
ATOM     27  O   UNL     1      -5.761  12.311  16.920  0.00  0.00    -0.226 OA
ATOM     28  N   UNL     1      -4.824  11.126  18.610  0.00  0.00    -0.279 N 
ATOM     29  H   UNL     1      -4.469  10.222  18.889  0.00  0.00    +0.152 HD
BRANCH  26  30
ATOM     30  O   UNL     1      -5.245  10.107  16.527  0.00  0.00    -0.444 OA
BRANCH  30  31
ATOM     31  C   UNL     1      -3.898   9.633  16.443  0.00  0.00    +0.292 C 
BRANCH  31  33
ATOM     32  N   UNL     1      -2.176   9.256  14.706  0.00  0.00    -0.131 NA
ATOM     33  C   UNL     1      -3.382   9.794  15.071  0.00  0.00    +0.120 A 
ATOM     34  C   UNL     1      -3.929  10.447  13.989  0.00  0.00    +0.137 A 
ATOM     35  N   UNL     1      -3.004  10.278  13.005  0.00  0.00    -0.251 N 
ATOM     36  N   UNL     1      -1.953   9.562  13.436  0.00  0.00    -0.065 NA
BRANCH  35  37
ATOM     37  C   UNL     1      -3.049  10.758  11.642  0.00  0.00    +0.156 C 
BRANCH  37  38
ATOM     38  C   UNL     1      -3.056  12.279  11.572  0.00  0.00    +0.143 C 
BRANCH  38  39
ATOM     39  C   UNL     1      -1.682  12.817  11.848  0.00  0.00    +0.306 C 
ATOM     40  O   UNL     1      -0.747  12.778  11.065  0.00  0.00    -0.251 OA
BRANCH  39  41
ATOM     41  O   UNL     1      -1.569  13.351  13.085  0.00  0.00    -0.481 OA
ATOM     42  H   UNL     1      -0.992  14.138  13.132  0.00  0.00    +0.295 HD
ENDBRANCH  39  41
ENDBRANCH  38  39
ENDBRANCH  37  38
ENDBRANCH  35  37
ENDBRANCH  31  33
ENDBRANCH  30  31
ENDBRANCH  26  30
ENDBRANCH  25  28
ENDBRANCH   1  25
TORSDOF 17
