REMARK VINA RESULT:    -5.283      1.571      2.062
REMARK INTER + INTRA:         -11.899
REMARK INTER:                  -9.334
REMARK INTRA:                  -2.565
REMARK UNBOUND:                -2.447
REMARK  Name = lig_assembled_85.pdb
REMARK  19 active torsions:
REMARK  status: ('A' for Active; 'I' for Inactive)
REMARK    1  A    between atoms: _2  and  _10
REMARK    2  A    between atoms: _3  and  _6
REMARK    3  A    between atoms: _3  and  _17
REMARK    4  A    between atoms: _5  and  _23
REMARK    5  A    between atoms: _7  and  _8
REMARK    6  A    between atoms: _7  and  _23
REMARK    7  A    between atoms: _15  and  _16
REMARK    8  A    between atoms: _19  and  _39
REMARK    9  A    between atoms: _21  and  _27
REMARK   10  A    between atoms: _22  and  _26
REMARK   11  A    between atoms: _26  and  _27
REMARK   12  A    between atoms: _29  and  _30
REMARK   13  A    between atoms: _31  and  _32
REMARK   14  A    between atoms: _33  and  _35
REMARK   15  A    between atoms: _35  and  _36
REMARK   16  A    between atoms: _35  and  _37
REMARK   17  A    between atoms: _37  and  _38
REMARK   18  A    between atoms: _37  and  _39
REMARK   19  A    between atoms: _40  and  _42
REMARK                            x       y       z     vdW  Elec       q    Type
REMARK                         _______ _______ _______ _____ _____    ______ ____
ROOT
ATOM      1  C   UNL     1      -3.062  12.273  21.354  0.00  0.00    +0.141 C 
ENDROOT
BRANCH   1   4
ATOM      2  C   UNL     1      -5.413  12.387  20.602  0.00  0.00    +0.401 C 
ATOM      3  O   UNL     1      -5.623  13.488  21.115  0.00  0.00    -0.226 OA
ATOM      4  N   UNL     1      -4.248  11.743  20.669  0.00  0.00    -0.279 N 
ATOM      5  H   UNL     1      -4.176  10.839  20.223  0.00  0.00    +0.152 HD
BRANCH   2   6
ATOM      6  O   UNL     1      -6.471  11.741  19.889  0.00  0.00    -0.444 OA
BRANCH   6   7
ATOM      7  C   UNL     1      -5.924  10.748  19.017  0.00  0.00    +0.292 C 
BRANCH   7   9
ATOM      8  N   UNL     1      -6.694  12.122  17.116  0.00  0.00    -0.131 NA
ATOM      9  C   UNL     1      -5.750  11.300  17.662  0.00  0.00    +0.121 A 
ATOM     10  C   UNL     1      -4.697  11.170  16.786  0.00  0.00    +0.143 A 
ATOM     11  N   UNL     1      -5.046  11.944  15.706  0.00  0.00    -0.219 N 
ATOM     12  N   UNL     1      -6.244  12.531  15.938  0.00  0.00    -0.060 NA
BRANCH  11  13
ATOM     13  C   UNL     1      -4.311  12.244  14.539  0.00  0.00    +0.080 A 
ATOM     14  C   UNL     1      -3.907  11.287  13.594  0.00  0.00    +0.062 A 
ATOM     15  C   UNL     1      -2.970  11.688  12.613  0.00  0.00    +0.016 A 
ATOM     16  C   UNL     1      -2.471  12.993  12.556  0.00  0.00    +0.021 A 
ATOM     17  C   UNL     1      -2.938  13.941  13.453  0.00  0.00    +0.043 A 
ATOM     18 CL   UNL     1      -2.310  15.542  13.420  0.00  0.00    -0.083 Cl
ATOM     19  C   UNL     1      -3.871  13.582  14.421  0.00  0.00    +0.048 A 
BRANCH  14  20
ATOM     20  C   UNL     1      -4.275   9.842  13.516  0.00  0.00    +0.248 C 
ATOM     21  O   UNL     1      -5.268   9.593  12.828  0.00  0.00    -0.270 OA
ATOM     22  N   UNL     1      -3.608   8.829  14.213  0.00  0.00    -0.304 N 
ATOM     23  C   UNL     1      -2.359   8.928  14.957  0.00  0.00    +0.132 C 
ATOM     24  C   UNL     1      -4.114   7.472  14.025  0.00  0.00    +0.132 C 
ENDBRANCH  14  20
ENDBRANCH  11  13
ENDBRANCH   7   9
ENDBRANCH   6   7
ENDBRANCH   2   6
ENDBRANCH   1   4
BRANCH   1  25
ATOM     25  C   UNL     1      -3.084  11.966  22.847  0.00  0.00    +0.163 C 
BRANCH  25  26
ATOM     26  O   UNL     1      -3.743  13.027  23.558  0.00  0.00    -0.388 OA
ATOM     27  H   UNL     1      -4.671  12.809  23.671  0.00  0.00    +0.210 HD
ENDBRANCH  25  26
BRANCH  25  28
ATOM     28  C   UNL     1      -3.792  10.621  23.086  0.00  0.00    +0.175 C 
BRANCH  28  29
ATOM     29  C   UNL     1      -3.837  10.247  24.574  0.00  0.00    +0.176 C 
ATOM     30  O   UNL     1      -3.178   8.961  24.732  0.00  0.00    -0.332 OA
ATOM     31  C   UNL     1      -3.031   8.489  26.113  0.00  0.00    +0.277 C 
ATOM     32  C   UNL     1      -4.406   8.464  26.825  0.00  0.00    +0.110 C 
ATOM     33  C   UNL     1      -5.158   9.801  26.658  0.00  0.00    +0.143 C 
ATOM     34  C   UNL     1      -5.250  10.198  25.184  0.00  0.00    +0.133 C 
BRANCH  34  35
ATOM     35  N   UNL     1      -5.891  11.515  25.045  0.00  0.00    -0.308 N 
ATOM     36  H   UNL     1      -5.493  12.290  25.556  0.00  0.00    +0.149 HD
ATOM     37  C   UNL     1      -6.965  11.753  24.286  0.00  0.00    +0.210 C 
ATOM     38  C   UNL     1      -7.564  10.545  23.541  0.00  0.00    +0.109 C 
ATOM     39  O   UNL     1      -7.473  12.870  24.177  0.00  0.00    -0.276 OA
ENDBRANCH  34  35
BRANCH  31  40
ATOM     40  C   UNL     1      -2.059   9.392  26.899  0.00  0.00    +0.414 C 
ATOM     41  O   UNL     1      -1.066   9.865  26.346  0.00  0.00    -0.240 OA
ATOM     42  O   UNL     1      -2.266   9.649  28.085  0.00  0.00    -0.240 OA
ENDBRANCH  31  40
BRANCH  33  43
ATOM     43  O   UNL     1      -6.475   9.684  27.197  0.00  0.00    -0.390 OA
ATOM     44  H   UNL     1      -7.114   9.660  26.481  0.00  0.00    +0.210 HD
ENDBRANCH  33  43
BRANCH  31  45
ATOM     45  O   UNL     1      -2.513   7.134  26.071  0.00  0.00    -0.343 OA
ATOM     46  C   UNL     1      -3.017   6.254  27.108  0.00  0.00    +0.198 C 
ENDBRANCH  31  45
ENDBRANCH  28  29
BRANCH  28  47
ATOM     47  O   UNL     1      -3.144   9.578  22.331  0.00  0.00    -0.387 OA
ATOM     48  H   UNL     1      -2.674   9.965  21.588  0.00  0.00    +0.210 HD
ENDBRANCH  28  47
ENDBRANCH  25  28
ENDBRANCH   1  25
TORSDOF 15
