REMARK VINA RESULT:    -4.860      2.633     12.262
REMARK INTER + INTRA:         -10.700
REMARK INTER:                  -8.696
REMARK INTRA:                  -2.004
REMARK UNBOUND:                -2.004
REMARK  Name = lig_assembled_6.pdb
REMARK  17 active torsions:
REMARK  status: ('A' for Active; 'I' for Inactive)
REMARK    1  A    between atoms: _2  and  _10
REMARK    2  A    between atoms: _3  and  _13
REMARK    3  A    between atoms: _5  and  _21
REMARK    4  A    between atoms: _7  and  _8
REMARK    5  A    between atoms: _7  and  _21
REMARK    6  A    between atoms: _17  and  _37
REMARK    7  A    between atoms: _19  and  _25
REMARK    8  A    between atoms: _20  and  _24
REMARK    9  A    between atoms: _24  and  _25
REMARK   10  A    between atoms: _27  and  _28
REMARK   11  A    between atoms: _29  and  _30
REMARK   12  A    between atoms: _31  and  _33
REMARK   13  A    between atoms: _33  and  _34
REMARK   14  A    between atoms: _33  and  _35
REMARK   15  A    between atoms: _35  and  _36
REMARK   16  A    between atoms: _35  and  _37
REMARK   17  A    between atoms: _38  and  _40
REMARK                            x       y       z     vdW  Elec       q    Type
REMARK                         _______ _______ _______ _____ _____    ______ ____
ROOT
ATOM      1  C   UNL     1      -5.340   9.988  16.540  0.00  0.00    +0.163 C 
ENDROOT
BRANCH   1   2
ATOM      2  O   UNL     1      -4.986   9.031  17.552  0.00  0.00    -0.388 OA
ATOM      3  H   UNL     1      -5.733   8.451  17.721  0.00  0.00    +0.210 HD
ENDBRANCH   1   2
BRANCH   1   4
ATOM      4  C   UNL     1      -6.458  10.893  17.047  0.00  0.00    +0.141 C 
BRANCH   4   7
ATOM      5  C   UNL     1      -5.953  11.631  19.350  0.00  0.00    +0.401 C 
ATOM      6  O   UNL     1      -6.352  10.588  19.873  0.00  0.00    -0.226 OA
ATOM      7  N   UNL     1      -5.971  11.862  18.037  0.00  0.00    -0.279 N 
ATOM      8  H   UNL     1      -5.631  12.753  17.705  0.00  0.00    +0.152 HD
BRANCH   5   9
ATOM      9  O   UNL     1      -5.439  12.673  20.184  0.00  0.00    -0.444 OA
BRANCH   9  10
ATOM     10  C   UNL     1      -4.046  12.451  20.422  0.00  0.00    +0.292 C 
BRANCH  10  12
ATOM     11  N   UNL     1      -3.121  10.853  22.070  0.00  0.00    -0.131 NA
ATOM     12  C   UNL     1      -3.828  11.990  21.805  0.00  0.00    +0.121 A 
ATOM     13  C   UNL     1      -4.235  12.553  22.993  0.00  0.00    +0.143 A 
ATOM     14  N   UNL     1      -3.720  11.732  23.970  0.00  0.00    -0.220 N 
ATOM     15  N   UNL     1      -3.066  10.698  23.387  0.00  0.00    -0.060 NA
BRANCH  14  16
ATOM     16  C   UNL     1      -3.777  11.886  25.381  0.00  0.00    +0.067 A 
ATOM     17  C   UNL     1      -2.852  11.232  26.210  0.00  0.00    +0.034 A 
ATOM     18  C   UNL     1      -2.956  11.342  27.601  0.00  0.00    +0.086 A 
ATOM     19  C   UNL     1      -3.984  12.108  28.164  0.00  0.00    +0.273 A 
ATOM     20  C   UNL     1      -4.895  12.786  27.346  0.00  0.00    +0.086 A 
ATOM     21  C   UNL     1      -4.788  12.674  25.955  0.00  0.00    +0.034 A 
BRANCH  19  22
ATOM     22  N   UNL     1      -4.114  12.184  29.625  0.00  0.00    +0.080 N 
ATOM     23  O   UNL     1      -3.984  13.296  30.157  0.00  0.00    +0.041 OA
ATOM     24  O   UNL     1      -4.338  11.132  30.240  0.00  0.00    -0.576 OA
ENDBRANCH  19  22
ENDBRANCH  14  16
ENDBRANCH  10  12
ENDBRANCH   9  10
ENDBRANCH   5   9
ENDBRANCH   4   7
ENDBRANCH   1   4
BRANCH   1  25
ATOM     25  C   UNL     1      -5.795   9.282  15.251  0.00  0.00    +0.175 C 
BRANCH  25  26
ATOM     26  C   UNL     1      -4.639   9.091  14.258  0.00  0.00    +0.176 C 
ATOM     27  O   UNL     1      -3.762   8.059  14.786  0.00  0.00    -0.332 OA
ATOM     28  C   UNL     1      -2.651   7.665  13.915  0.00  0.00    +0.277 C 
ATOM     29  C   UNL     1      -1.816   8.904  13.509  0.00  0.00    +0.110 C 
ATOM     30  C   UNL     1      -2.709  10.041  12.971  0.00  0.00    +0.143 C 
ATOM     31  C   UNL     1      -3.833  10.368  13.954  0.00  0.00    +0.133 C 
BRANCH  31  32
ATOM     32  N   UNL     1      -4.728  11.392  13.392  0.00  0.00    -0.308 N 
ATOM     33  H   UNL     1      -5.289  11.140  12.591  0.00  0.00    +0.149 HD
ATOM     34  C   UNL     1      -4.847  12.633  13.872  0.00  0.00    +0.210 C 
ATOM     35  C   UNL     1      -3.959  12.994  15.077  0.00  0.00    +0.109 C 
ATOM     36  O   UNL     1      -5.616  13.465  13.390  0.00  0.00    -0.276 OA
ENDBRANCH  31  32
BRANCH  28  37
ATOM     37  C   UNL     1      -3.174   6.958  12.647  0.00  0.00    +0.414 C 
ATOM     38  O   UNL     1      -2.661   7.188  11.552  0.00  0.00    -0.240 OA
ATOM     39  O   UNL     1      -4.107   6.158  12.719  0.00  0.00    -0.240 OA
ENDBRANCH  28  37
BRANCH  30  40
ATOM     40  O   UNL     1      -1.920  11.211  12.752  0.00  0.00    -0.390 OA
ATOM     41  H   UNL     1      -1.033  11.068  13.090  0.00  0.00    +0.210 HD
ENDBRANCH  30  40
BRANCH  28  42
ATOM     42  O   UNL     1      -1.795   6.761  14.660  0.00  0.00    -0.343 OA
ATOM     43  C   UNL     1      -0.838   7.407  15.537  0.00  0.00    +0.198 C 
ENDBRANCH  28  42
ENDBRANCH  25  26
BRANCH  25  44
ATOM     44  O   UNL     1      -6.866  10.022  14.631  0.00  0.00    -0.387 OA
ATOM     45  H   UNL     1      -7.253  10.623  15.272  0.00  0.00    +0.210 HD
ENDBRANCH  25  44
ENDBRANCH   1  25
TORSDOF 15
