REMARK VINA RESULT:    -5.795      5.649     11.786
REMARK INTER + INTRA:         -13.096
REMARK INTER:                  -9.766
REMARK INTRA:                  -3.329
REMARK UNBOUND:                -2.389
REMARK  Name = lig_assembled_92.pdb
REMARK  18 active torsions:
REMARK  status: ('A' for Active; 'I' for Inactive)
REMARK    1  A    between atoms: _2  and  _11
REMARK    2  A    between atoms: _3  and  _46
REMARK    3  A    between atoms: _6  and  _25
REMARK    4  A    between atoms: _8  and  _9
REMARK    5  A    between atoms: _8  and  _25
REMARK    6  A    between atoms: _14  and  _46
REMARK    7  A    between atoms: _21  and  _41
REMARK    8  A    between atoms: _23  and  _29
REMARK    9  A    between atoms: _24  and  _28
REMARK   10  A    between atoms: _28  and  _29
REMARK   11  A    between atoms: _31  and  _32
REMARK   12  A    between atoms: _33  and  _34
REMARK   13  A    between atoms: _35  and  _37
REMARK   14  A    between atoms: _37  and  _38
REMARK   15  A    between atoms: _37  and  _39
REMARK   16  A    between atoms: _39  and  _40
REMARK   17  A    between atoms: _39  and  _41
REMARK   18  A    between atoms: _42  and  _44
REMARK                            x       y       z     vdW  Elec       q    Type
REMARK                         _______ _______ _______ _____ _____    ______ ____
ROOT
ATOM      1  C   UNL     1      -4.200  14.316  22.494  0.00  0.00    +0.401 C 
ATOM      2  O   UNL     1      -3.231  15.000  22.157  0.00  0.00    -0.226 OA
ATOM      3  N   UNL     1      -4.181  13.440  23.499  0.00  0.00    -0.279 N 
ATOM      4  H   UNL     1      -5.029  12.932  23.705  0.00  0.00    +0.152 HD
ENDROOT
BRANCH   3   5
ATOM      5  C   UNL     1      -2.996  13.173  24.324  0.00  0.00    +0.141 C 
BRANCH   5   6
ATOM      6  C   UNL     1      -2.913  11.708  24.742  0.00  0.00    +0.163 C 
BRANCH   6   7
ATOM      7  O   UNL     1      -3.143  11.588  26.156  0.00  0.00    -0.388 OA
ATOM      8  H   UNL     1      -4.055  11.330  26.312  0.00  0.00    +0.210 HD
ENDBRANCH   6   7
BRANCH   6   9
ATOM      9  C   UNL     1      -3.942  10.887  23.946  0.00  0.00    +0.175 C 
BRANCH   9  10
ATOM     10  C   UNL     1      -4.279   9.557  24.636  0.00  0.00    +0.176 C 
ATOM     11  O   UNL     1      -3.037   8.978  25.121  0.00  0.00    -0.332 OA
ATOM     12  C   UNL     1      -3.175   7.747  25.905  0.00  0.00    +0.277 C 
ATOM     13  C   UNL     1      -3.972   6.685  25.109  0.00  0.00    +0.110 C 
ATOM     14  C   UNL     1      -5.287   7.264  24.546  0.00  0.00    +0.143 C 
ATOM     15  C   UNL     1      -5.027   8.544  23.750  0.00  0.00    +0.133 C 
BRANCH  15  16
ATOM     16  N   UNL     1      -6.295   9.132  23.293  0.00  0.00    -0.308 N 
ATOM     17  H   UNL     1      -6.913   9.523  23.990  0.00  0.00    +0.149 HD
ATOM     18  C   UNL     1      -6.684   9.184  22.016  0.00  0.00    +0.210 C 
ATOM     19  C   UNL     1      -5.733   8.556  20.980  0.00  0.00    +0.109 C 
ATOM     20  O   UNL     1      -7.746   9.697  21.660  0.00  0.00    -0.276 OA
ENDBRANCH  15  16
BRANCH  12  21
ATOM     21  C   UNL     1      -3.887   8.029  27.245  0.00  0.00    +0.414 C 
ATOM     22  O   UNL     1      -4.663   7.201  27.721  0.00  0.00    -0.240 OA
ATOM     23  O   UNL     1      -3.687   9.084  27.849  0.00  0.00    -0.240 OA
ENDBRANCH  12  21
BRANCH  14  24
ATOM     24  O   UNL     1      -5.913   6.301  23.697  0.00  0.00    -0.390 OA
ATOM     25  H   UNL     1      -5.384   5.500  23.676  0.00  0.00    +0.210 HD
ENDBRANCH  14  24
BRANCH  12  26
ATOM     26  O   UNL     1      -1.846   7.225  26.160  0.00  0.00    -0.343 OA
ATOM     27  C   UNL     1      -1.771   5.785  26.306  0.00  0.00    +0.198 C 
ENDBRANCH  12  26
ENDBRANCH   9  10
BRANCH   9  28
ATOM     28  O   UNL     1      -3.457  10.645  22.610  0.00  0.00    -0.387 OA
ATOM     29  H   UNL     1      -4.054  11.048  21.975  0.00  0.00    +0.210 HD
ENDBRANCH   9  28
ENDBRANCH   6   9
ENDBRANCH   5   6
ENDBRANCH   3   5
BRANCH   1  30
ATOM     30  O   UNL     1      -5.430  14.456  21.779  0.00  0.00    -0.444 OA
BRANCH  30  31
ATOM     31  C   UNL     1      -6.115  13.201  21.757  0.00  0.00    +0.292 C 
BRANCH  31  33
ATOM     32  N   UNL     1      -7.170  12.676  19.576  0.00  0.00    -0.131 NA
ATOM     33  C   UNL     1      -6.084  12.623  20.400  0.00  0.00    +0.121 A 
ATOM     34  C   UNL     1      -5.056  11.985  19.746  0.00  0.00    +0.143 A 
ATOM     35  N   UNL     1      -5.556  11.688  18.499  0.00  0.00    -0.220 N 
ATOM     36  N   UNL     1      -6.844  12.101  18.424  0.00  0.00    -0.060 NA
BRANCH  35  37
ATOM     37  C   UNL     1      -4.887  11.087  17.403  0.00  0.00    +0.067 A 
ATOM     38  C   UNL     1      -4.177  11.877  16.485  0.00  0.00    +0.030 A 
ATOM     39  C   UNL     1      -3.571  11.288  15.376  0.00  0.00    +0.031 A 
ATOM     40  C   UNL     1      -3.660   9.908  15.186  0.00  0.00    +0.109 A 
ATOM     41  C   UNL     1      -4.354   9.107  16.096  0.00  0.00    +0.031 A 
ATOM     42  C   UNL     1      -4.959   9.697  17.212  0.00  0.00    +0.030 A 
BRANCH  40  43
ATOM     43  S   UNL     1      -3.008   9.218  13.688  0.00  0.00    +0.074 S 
ATOM     44  O   UNL     1      -1.793   9.941  13.366  0.00  0.00    -0.150 OA
ATOM     45  O   UNL     1      -2.984   7.780  13.815  0.00  0.00    -0.150 OA
BRANCH  43  46
ATOM     46  N   UNL     1      -4.126   9.695  12.515  0.00  0.00    -0.194 N 
ATOM     47  H   UNL     1      -4.897  10.127  13.018  0.00  0.00    +0.176 HD
ATOM     48  C   UNL     1      -3.548  10.536  11.542  0.00  0.00    +0.177 A 
ATOM     49  S   UNL     1      -3.676  12.239  11.601  0.00  0.00    -0.059 S 
ATOM     50  C   UNL     1      -2.871  12.328  10.087  0.00  0.00    +0.068 A 
ATOM     51  C   UNL     1      -2.637  11.054   9.616  0.00  0.00    +0.120 A 
ATOM     52  N   UNL     1      -2.997  10.026  10.468  0.00  0.00    -0.232 NA
ENDBRANCH  43  46
ENDBRANCH  40  43
ENDBRANCH  35  37
ENDBRANCH  31  33
ENDBRANCH  30  31
ENDBRANCH   1  30
TORSDOF 16
