REMARK VINA RESULT:    -5.365      6.322     12.448
REMARK INTER + INTRA:         -13.841
REMARK INTER:                 -10.988
REMARK INTRA:                  -2.853
REMARK UNBOUND:                -3.302
REMARK  Name = lig_assembled_84.pdb
REMARK  21 active torsions:
REMARK  status: ('A' for Active; 'I' for Inactive)
REMARK    1  A    between atoms: _2  and  _11
REMARK    2  A    between atoms: _3  and  _14
REMARK    3  A    between atoms: _4  and  _17
REMARK    4  A    between atoms: _6  and  _28
REMARK    5  A    between atoms: _8  and  _9
REMARK    6  A    between atoms: _8  and  _28
REMARK    7  A    between atoms: _11  and  _12
REMARK    8  A    between atoms: _12  and  _13
REMARK    9  A    between atoms: _12  and  _14
REMARK   10  A    between atoms: _24  and  _44
REMARK   11  A    between atoms: _26  and  _32
REMARK   12  A    between atoms: _27  and  _31
REMARK   13  A    between atoms: _31  and  _32
REMARK   14  A    between atoms: _34  and  _35
REMARK   15  A    between atoms: _36  and  _37
REMARK   16  A    between atoms: _38  and  _40
REMARK   17  A    between atoms: _40  and  _41
REMARK   18  A    between atoms: _40  and  _42
REMARK   19  A    between atoms: _42  and  _43
REMARK   20  A    between atoms: _42  and  _44
REMARK   21  A    between atoms: _45  and  _47
REMARK                            x       y       z     vdW  Elec       q    Type
REMARK                         _______ _______ _______ _____ _____    ______ ____
ROOT
ATOM      1  C   UNL     1      -4.264  12.408  21.385  0.00  0.00    +0.401 C 
ATOM      2  O   UNL     1      -5.381  12.674  21.837  0.00  0.00    -0.226 OA
ATOM      3  N   UNL     1      -3.159  12.333  22.127  0.00  0.00    -0.279 N 
ATOM      4  H   UNL     1      -2.290  12.098  21.667  0.00  0.00    +0.152 HD
ENDROOT
BRANCH   1   5
ATOM      5  O   UNL     1      -4.123  12.157  19.985  0.00  0.00    -0.444 OA
BRANCH   5   6
ATOM      6  C   UNL     1      -5.386  11.764  19.440  0.00  0.00    +0.292 C 
BRANCH   6   8
ATOM      7  N   UNL     1      -5.190   9.297  19.282  0.00  0.00    -0.131 NA
ATOM      8  C   UNL     1      -5.254  10.518  18.661  0.00  0.00    +0.120 A 
ATOM      9  C   UNL     1      -5.141  10.337  17.301  0.00  0.00    +0.137 A 
ATOM     10  N   UNL     1      -4.944   8.995  17.164  0.00  0.00    -0.251 N 
ATOM     11  N   UNL     1      -4.997   8.370  18.353  0.00  0.00    -0.065 NA
BRANCH  10  12
ATOM     12  C   UNL     1      -4.567   8.272  15.965  0.00  0.00    +0.149 C 
BRANCH  12  13
ATOM     13  C   UNL     1      -3.385   8.889  15.197  0.00  0.00    +0.021 C 
ATOM     14  C   UNL     1      -2.125   8.020  15.322  0.00  0.00    +0.010 C 
BRANCH  13  15
ATOM     15  C   UNL     1      -3.722   9.067  13.697  0.00  0.00    +0.089 C 
BRANCH  15  16
ATOM     16  N   UNL     1      -3.595  10.434  13.174  0.00  0.00    -0.299 NA
ATOM     17  C   UNL     1      -2.752  10.434  11.949  0.00  0.00    +0.103 C 
ATOM     18  C   UNL     1      -2.662  11.838  11.317  0.00  0.00    +0.120 C 
ATOM     19  N   UNL     1      -2.114  12.786  12.295  0.00  0.00    -0.327 N 
ATOM     20  C   UNL     1      -2.842  12.825  13.572  0.00  0.00    +0.120 C 
ATOM     21  C   UNL     1      -2.997  11.386  14.144  0.00  0.00    +0.103 C 
BRANCH  19  22
ATOM     22  C   UNL     1      -1.045  13.605  12.016  0.00  0.00    +0.030 A 
ATOM     23  C   UNL     1      -0.221  13.377  10.899  0.00  0.00    +0.024 A 
ATOM     24  C   UNL     1       0.886  14.184  10.613  0.00  0.00    +0.022 A 
ATOM     25  C   UNL     1       1.188  15.250  11.445  0.00  0.00    +0.041 A 
ATOM     26 CL   UNL     1       2.551  16.244  11.104  0.00  0.00    -0.084 Cl
ATOM     27  C   UNL     1       0.397  15.512  12.558  0.00  0.00    +0.022 A 
ATOM     28  C   UNL     1      -0.705  14.691  12.836  0.00  0.00    +0.024 A 
ENDBRANCH  19  22
ENDBRANCH  15  16
ENDBRANCH  13  15
ENDBRANCH  12  13
ENDBRANCH  10  12
ENDBRANCH   6   8
ENDBRANCH   5   6
ENDBRANCH   1   5
BRANCH   3  29
ATOM     29  C   UNL     1      -3.132  12.572  23.576  0.00  0.00    +0.141 C 
BRANCH  29  30
ATOM     30  C   UNL     1      -2.887  11.287  24.360  0.00  0.00    +0.163 C 
BRANCH  30  31
ATOM     31  O   UNL     1      -1.896  11.513  25.375  0.00  0.00    -0.388 OA
ATOM     32  H   UNL     1      -2.290  11.992  26.108  0.00  0.00    +0.210 HD
ENDBRANCH  30  31
BRANCH  30  33
ATOM     33  C   UNL     1      -4.209  10.803  24.980  0.00  0.00    +0.175 C 
BRANCH  33  34
ATOM     34  C   UNL     1      -3.985   9.733  26.058  0.00  0.00    +0.176 C 
ATOM     35  O   UNL     1      -2.982   8.803  25.563  0.00  0.00    -0.332 OA
ATOM     36  C   UNL     1      -2.559   7.765  26.508  0.00  0.00    +0.277 C 
ATOM     37  C   UNL     1      -3.786   6.981  27.034  0.00  0.00    +0.110 C 
ATOM     38  C   UNL     1      -4.892   7.928  27.543  0.00  0.00    +0.143 C 
ATOM     39  C   UNL     1      -5.253   8.969  26.482  0.00  0.00    +0.133 C 
BRANCH  39  40
ATOM     40  N   UNL     1      -6.245   9.919  27.009  0.00  0.00    -0.308 N 
ATOM     41  H   UNL     1      -5.953  10.547  27.745  0.00  0.00    +0.149 HD
ATOM     42  C   UNL     1      -7.507  10.006  26.579  0.00  0.00    +0.210 C 
ATOM     43  C   UNL     1      -7.928   9.018  25.475  0.00  0.00    +0.109 C 
ATOM     44  O   UNL     1      -8.312  10.822  27.029  0.00  0.00    -0.276 OA
ENDBRANCH  39  40
BRANCH  36  45
ATOM     45  C   UNL     1      -1.794   8.385  27.696  0.00  0.00    +0.414 C 
ATOM     46  O   UNL     1      -1.087   9.378  27.528  0.00  0.00    -0.240 OA
ATOM     47  O   UNL     1      -1.885   7.893  28.821  0.00  0.00    -0.240 OA
ENDBRANCH  36  45
BRANCH  36  48
ATOM     48  O   UNL     1      -1.694   6.840  25.800  0.00  0.00    -0.343 OA
ATOM     49  C   UNL     1      -1.997   5.437  26.008  0.00  0.00    +0.198 C 
ENDBRANCH  36  48
BRANCH  38  50
ATOM     50  O   UNL     1      -6.058   7.173  27.876  0.00  0.00    -0.390 OA
ATOM     51  H   UNL     1      -5.797   6.353  28.301  0.00  0.00    +0.210 HD
ENDBRANCH  38  50
ENDBRANCH  33  34
BRANCH  33  52
ATOM     52  O   UNL     1      -5.084  10.297  23.952  0.00  0.00    -0.387 OA
ATOM     53  H   UNL     1      -5.740   9.717  24.346  0.00  0.00    +0.210 HD
ENDBRANCH  33  52
ENDBRANCH  30  33
ENDBRANCH  29  30
ENDBRANCH   3  29
TORSDOF 18
