REMARK VINA RESULT:    -4.966      8.902     13.655
REMARK INTER + INTRA:         -11.435
REMARK INTER:                  -8.138
REMARK INTRA:                  -3.297
REMARK UNBOUND:                -2.841
REMARK  Name = lig_assembled_86.pdb
REMARK  17 active torsions:
REMARK  status: ('A' for Active; 'I' for Inactive)
REMARK    1  A    between atoms: _2  and  _10
REMARK    2  A    between atoms: _3  and  _13
REMARK    3  A    between atoms: _5  and  _21
REMARK    4  A    between atoms: _7  and  _8
REMARK    5  A    between atoms: _7  and  _21
REMARK    6  A    between atoms: _17  and  _37
REMARK    7  A    between atoms: _19  and  _25
REMARK    8  A    between atoms: _20  and  _24
REMARK    9  A    between atoms: _24  and  _25
REMARK   10  A    between atoms: _27  and  _28
REMARK   11  A    between atoms: _29  and  _30
REMARK   12  A    between atoms: _31  and  _33
REMARK   13  A    between atoms: _33  and  _34
REMARK   14  A    between atoms: _33  and  _35
REMARK   15  A    between atoms: _35  and  _36
REMARK   16  A    between atoms: _35  and  _37
REMARK   17  A    between atoms: _38  and  _40
REMARK                            x       y       z     vdW  Elec       q    Type
REMARK                         _______ _______ _______ _____ _____    ______ ____
ROOT
ATOM      1  C   UNL     1      -4.307  12.902  29.833  0.00  0.00    +0.163 C 
ENDROOT
BRANCH   1   2
ATOM      2  O   UNL     1      -2.994  12.822  30.412  0.00  0.00    -0.388 OA
ATOM      3  H   UNL     1      -2.355  13.219  29.815  0.00  0.00    +0.210 HD
ENDBRANCH   1   2
BRANCH   1   4
ATOM      4  C   UNL     1      -5.258  13.608  30.793  0.00  0.00    +0.141 C 
BRANCH   4   7
ATOM      5  C   UNL     1      -6.890  14.994  29.560  0.00  0.00    +0.401 C 
ATOM      6  O   UNL     1      -6.127  15.956  29.445  0.00  0.00    -0.226 OA
ATOM      7  N   UNL     1      -6.568  13.858  30.180  0.00  0.00    -0.279 N 
ATOM      8  H   UNL     1      -7.266  13.129  30.231  0.00  0.00    +0.152 HD
BRANCH   5   9
ATOM      9  O   UNL     1      -8.205  15.081  29.005  0.00  0.00    -0.444 OA
BRANCH   9  10
ATOM     10  C   UNL     1      -8.119  15.443  27.625  0.00  0.00    +0.292 C 
BRANCH  10  12
ATOM     11  N   UNL     1      -8.022  13.082  26.872  0.00  0.00    -0.131 NA
ATOM     12  C   UNL     1      -7.503  14.350  26.848  0.00  0.00    +0.120 A 
ATOM     13  C   UNL     1      -6.409  14.369  26.016  0.00  0.00    +0.137 A 
ATOM     14  N   UNL     1      -6.335  13.097  25.536  0.00  0.00    -0.248 N 
ATOM     15  N   UNL     1      -7.287  12.316  26.076  0.00  0.00    -0.065 NA
BRANCH  14  16
ATOM     16  C   UNL     1      -5.390  12.575  24.561  0.00  0.00    +0.112 C 
ATOM     17  C   UNL     1      -6.079  12.216  23.228  0.00  0.00    +0.045 C 
ATOM     18  C   UNL     1      -5.348  12.715  21.978  0.00  0.00    +0.059 C 
ATOM     19  C   UNL     1      -5.567  14.217  21.772  0.00  0.00    +0.020 C 
ATOM     20  C   UNL     1      -4.368  14.877  22.450  0.00  0.00    +0.020 C 
ATOM     21  C   UNL     1      -3.590  13.713  23.068  0.00  0.00    +0.059 C 
ATOM     22  N   UNL     1      -3.893  12.651  22.109  0.00  0.00    -0.299 NA
ATOM     23  C   UNL     1      -3.317  11.348  22.384  0.00  0.00    +0.105 C 
ATOM     24  C   UNL     1      -4.086  13.402  24.487  0.00  0.00    +0.045 C 
ENDBRANCH  14  16
ENDBRANCH  10  12
ENDBRANCH   9  10
ENDBRANCH   5   9
ENDBRANCH   4   7
ENDBRANCH   1   4
BRANCH   1  25
ATOM     25  C   UNL     1      -4.851  11.500  29.507  0.00  0.00    +0.175 C 
BRANCH  25  26
ATOM     26  C   UNL     1      -3.778  10.593  28.886  0.00  0.00    +0.176 C 
ATOM     27  O   UNL     1      -4.246  10.182  27.573  0.00  0.00    -0.332 OA
ATOM     28  C   UNL     1      -3.299   9.391  26.781  0.00  0.00    +0.277 C 
ATOM     29  C   UNL     1      -2.829   8.151  27.581  0.00  0.00    +0.110 C 
ATOM     30  C   UNL     1      -2.351   8.535  28.997  0.00  0.00    +0.143 C 
ATOM     31  C   UNL     1      -3.412   9.358  29.730  0.00  0.00    +0.133 C 
BRANCH  31  32
ATOM     32  N   UNL     1      -2.911   9.791  31.044  0.00  0.00    -0.308 N 
ATOM     33  H   UNL     1      -2.090  10.380  31.065  0.00  0.00    +0.149 HD
ATOM     34  C   UNL     1      -3.470   9.457  32.210  0.00  0.00    +0.210 C 
ATOM     35  C   UNL     1      -4.704   8.537  32.145  0.00  0.00    +0.109 C 
ATOM     36  O   UNL     1      -3.037   9.847  33.295  0.00  0.00    -0.276 OA
ENDBRANCH  31  32
BRANCH  28  37
ATOM     37  C   UNL     1      -2.076  10.242  26.382  0.00  0.00    +0.414 C 
ATOM     38  O   UNL     1      -0.949   9.748  26.389  0.00  0.00    -0.240 OA
ATOM     39  O   UNL     1      -2.216  11.420  26.052  0.00  0.00    -0.240 OA
ENDBRANCH  28  37
BRANCH  30  40
ATOM     40  O   UNL     1      -2.072   7.353  29.748  0.00  0.00    -0.390 OA
ATOM     41  H   UNL     1      -1.363   6.864  29.324  0.00  0.00    +0.210 HD
ENDBRANCH  30  40
BRANCH  28  42
ATOM     42  O   UNL     1      -3.985   8.932  25.588  0.00  0.00    -0.343 OA
ATOM     43  C   UNL     1      -5.430   9.053  25.627  0.00  0.00    +0.198 C 
ENDBRANCH  28  42
ENDBRANCH  25  26
BRANCH  25  44
ATOM     44  O   UNL     1      -5.987  11.601  28.626  0.00  0.00    -0.387 OA
ATOM     45  H   UNL     1      -6.261  10.722  28.354  0.00  0.00    +0.210 HD
ENDBRANCH  25  44
ENDBRANCH   1  25
TORSDOF 14
