REMARK VINA RESULT:    -4.900      1.665      2.050
REMARK INTER + INTRA:         -11.838
REMARK INTER:                  -9.145
REMARK INTRA:                  -2.693
REMARK UNBOUND:                -3.358
REMARK  Name = lig_assembled_42.pdb
REMARK  16 active torsions:
REMARK  status: ('A' for Active; 'I' for Inactive)
REMARK    1  A    between atoms: _2  and  _9
REMARK    2  A    between atoms: _4  and  _21
REMARK    3  A    between atoms: _6  and  _7
REMARK    4  A    between atoms: _6  and  _21
REMARK    5  A    between atoms: _17  and  _37
REMARK    6  A    between atoms: _19  and  _25
REMARK    7  A    between atoms: _20  and  _24
REMARK    8  A    between atoms: _24  and  _25
REMARK    9  A    between atoms: _27  and  _28
REMARK   10  A    between atoms: _29  and  _30
REMARK   11  A    between atoms: _31  and  _33
REMARK   12  A    between atoms: _33  and  _34
REMARK   13  A    between atoms: _33  and  _35
REMARK   14  A    between atoms: _35  and  _36
REMARK   15  A    between atoms: _35  and  _37
REMARK   16  A    between atoms: _38  and  _40
REMARK                            x       y       z     vdW  Elec       q    Type
REMARK                         _______ _______ _______ _____ _____    ______ ____
ROOT
ATOM      1  C   UNL     1      -2.738   9.895  13.712  0.00  0.00    +0.163 C 
ENDROOT
BRANCH   1   2
ATOM      2  O   UNL     1      -2.213   9.998  12.378  0.00  0.00    -0.388 OA
ATOM      3  H   UNL     1      -1.354  10.427  12.404  0.00  0.00    +0.210 HD
ENDBRANCH   1   2
BRANCH   1   4
ATOM      4  C   UNL     1      -3.625   8.660  13.829  0.00  0.00    +0.141 C 
BRANCH   4   7
ATOM      5  C   UNL     1      -3.815   7.897  16.171  0.00  0.00    +0.401 C 
ATOM      6  O   UNL     1      -2.773   7.239  16.140  0.00  0.00    -0.226 OA
ATOM      7  N   UNL     1      -4.292   8.587  15.135  0.00  0.00    -0.279 N 
ATOM      8  H   UNL     1      -5.161   9.089  15.255  0.00  0.00    +0.152 HD
BRANCH   5   9
ATOM      9  O   UNL     1      -4.578   7.933  17.380  0.00  0.00    -0.444 OA
BRANCH   9  10
ATOM     10  C   UNL     1      -5.500   9.025  17.331  0.00  0.00    +0.292 C 
BRANCH  10  12
ATOM     11  N   UNL     1      -4.879  11.380  17.805  0.00  0.00    -0.131 NA
ATOM     12  C   UNL     1      -5.075  10.103  18.244  0.00  0.00    +0.121 A 
ATOM     13  C   UNL     1      -4.813  10.048  19.591  0.00  0.00    +0.143 A 
ATOM     14  N   UNL     1      -4.457  11.329  19.941  0.00  0.00    -0.220 N 
ATOM     15  N   UNL     1      -4.504  12.121  18.841  0.00  0.00    -0.060 NA
BRANCH  14  16
ATOM     16  C   UNL     1      -4.085  11.820  21.218  0.00  0.00    +0.071 A 
ATOM     17  C   UNL     1      -3.503  10.957  22.159  0.00  0.00    +0.077 A 
ATOM     18  C   UNL     1      -3.158  11.482  23.386  0.00  0.00    +0.168 A 
ATOM     19  O   UNL     1      -2.584  10.786  24.402  0.00  0.00    -0.453 OA
ATOM     20  C   UNL     1      -2.450  11.822  25.396  0.00  0.00    +0.466 C 
ATOM     21  O   UNL     1      -2.951  13.104  24.959  0.00  0.00    -0.453 OA
ATOM     22  C   UNL     1      -3.367  12.803  23.700  0.00  0.00    +0.166 A 
ATOM     23  C   UNL     1      -3.937  13.679  22.802  0.00  0.00    +0.051 A 
ATOM     24  C   UNL     1      -4.301  13.181  21.543  0.00  0.00    +0.031 A 
ENDBRANCH  14  16
ENDBRANCH  10  12
ENDBRANCH   9  10
ENDBRANCH   5   9
ENDBRANCH   4   7
ENDBRANCH   1   4
BRANCH   1  25
ATOM     25  C   UNL     1      -3.550  11.149  14.081  0.00  0.00    +0.175 C 
BRANCH  25  26
ATOM     26  C   UNL     1      -3.378  12.274  13.050  0.00  0.00    +0.176 C 
ATOM     27  O   UNL     1      -2.117  12.944  13.326  0.00  0.00    -0.332 OA
ATOM     28  C   UNL     1      -1.731  13.987  12.371  0.00  0.00    +0.277 C 
ATOM     29  C   UNL     1      -2.861  15.036  12.229  0.00  0.00    +0.110 C 
ATOM     30  C   UNL     1      -4.228  14.368  11.966  0.00  0.00    +0.143 C 
ATOM     31  C   UNL     1      -4.527  13.298  13.017  0.00  0.00    +0.133 C 
BRANCH  31  32
ATOM     32  N   UNL     1      -5.790  12.610  12.706  0.00  0.00    -0.308 N 
ATOM     33  H   UNL     1      -5.882  12.182  11.796  0.00  0.00    +0.149 HD
ATOM     34  C   UNL     1      -6.823  12.516  13.548  0.00  0.00    +0.210 C 
ATOM     35  C   UNL     1      -6.661  13.202  14.918  0.00  0.00    +0.109 C 
ATOM     36  O   UNL     1      -7.863  11.920  13.267  0.00  0.00    -0.276 OA
ENDBRANCH  31  32
BRANCH  28  37
ATOM     37  C   UNL     1      -1.420  13.375  10.989  0.00  0.00    +0.414 C 
ATOM     38  O   UNL     1      -0.944  12.243  10.906  0.00  0.00    -0.240 OA
ATOM     39  O   UNL     1      -1.644  14.012   9.959  0.00  0.00    -0.240 OA
ENDBRANCH  28  37
BRANCH  30  40
ATOM     40  O   UNL     1      -5.259  15.356  11.993  0.00  0.00    -0.390 OA
ATOM     41  H   UNL     1      -5.378  15.671  12.892  0.00  0.00    +0.210 HD
ENDBRANCH  30  40
BRANCH  28  42
ATOM     42  O   UNL     1      -0.551  14.654  12.887  0.00  0.00    -0.343 OA
ATOM     43  C   UNL     1      -0.415  16.044  12.500  0.00  0.00    +0.198 C 
ENDBRANCH  28  42
ENDBRANCH  25  26
BRANCH  25  44
ATOM     44  O   UNL     1      -3.175  11.615  15.393  0.00  0.00    -0.387 OA
ATOM     45  H   UNL     1      -2.253  11.882  15.386  0.00  0.00    +0.210 HD
ENDBRANCH  25  44
ENDBRANCH   1  25
TORSDOF 14
