REMARK VINA RESULT:    -3.734      4.896      9.780
REMARK INTER + INTRA:         -10.558
REMARK INTER:                  -8.024
REMARK INTRA:                  -2.534
REMARK UNBOUND:                -2.785
REMARK  Name = lig_assembled_54.pdb
REMARK  24 active torsions:
REMARK  status: ('A' for Active; 'I' for Inactive)
REMARK    1  A    between atoms: _2  and  _9
REMARK    2  A    between atoms: _4  and  _21
REMARK    3  A    between atoms: _5  and  _14
REMARK    4  A    between atoms: _6  and  _7
REMARK    5  A    between atoms: _6  and  _21
REMARK    6  A    between atoms: _9  and  _10
REMARK    7  A    between atoms: _10  and  _11
REMARK    8  A    between atoms: _11  and  _15
REMARK    9  A    between atoms: _11  and  _16
REMARK   10  A    between atoms: _12  and  _13
REMARK   11  A    between atoms: _12  and  _16
REMARK   12  A    between atoms: _14  and  _15
REMARK   13  A    between atoms: _17  and  _37
REMARK   14  A    between atoms: _19  and  _25
REMARK   15  A    between atoms: _20  and  _24
REMARK   16  A    between atoms: _24  and  _25
REMARK   17  A    between atoms: _27  and  _28
REMARK   18  A    between atoms: _29  and  _30
REMARK   19  A    between atoms: _31  and  _33
REMARK   20  A    between atoms: _33  and  _34
REMARK   21  A    between atoms: _33  and  _35
REMARK   22  A    between atoms: _35  and  _36
REMARK   23  A    between atoms: _35  and  _37
REMARK   24  A    between atoms: _38  and  _40
REMARK                            x       y       z     vdW  Elec       q    Type
REMARK                         _______ _______ _______ _____ _____    ______ ____
ROOT
ATOM      1  C   UNL     1      -6.448   9.342  23.474  0.00  0.00    +0.163 C 
ENDROOT
BRANCH   1   2
ATOM      2  O   UNL     1      -7.260   9.350  24.659  0.00  0.00    -0.388 OA
ATOM      3  H   UNL     1      -7.994   9.958  24.541  0.00  0.00    +0.210 HD
ENDBRANCH   1   2
BRANCH   1   4
ATOM      4  C   UNL     1      -5.116   8.613  23.724  0.00  0.00    +0.175 C 
BRANCH   4   5
ATOM      5  C   UNL     1      -4.086   9.515  24.420  0.00  0.00    +0.176 C 
ATOM      6  O   UNL     1      -4.403   9.544  25.839  0.00  0.00    -0.332 OA
ATOM      7  C   UNL     1      -3.457  10.277  26.685  0.00  0.00    +0.277 C 
ATOM      8  C   UNL     1      -3.268  11.722  26.160  0.00  0.00    +0.110 C 
ATOM      9  C   UNL     1      -2.960  11.743  24.648  0.00  0.00    +0.143 C 
ATOM     10  C   UNL     1      -4.005  10.949  23.864  0.00  0.00    +0.133 C 
BRANCH  10  11
ATOM     11  N   UNL     1      -3.653  10.903  22.436  0.00  0.00    -0.308 N 
ATOM     12  H   UNL     1      -2.864  10.334  22.163  0.00  0.00    +0.149 HD
ATOM     13  C   UNL     1      -4.307  11.565  21.478  0.00  0.00    +0.210 C 
ATOM     14  C   UNL     1      -5.488  12.444  21.930  0.00  0.00    +0.109 C 
ATOM     15  O   UNL     1      -3.999  11.496  20.288  0.00  0.00    -0.276 OA
ENDBRANCH  10  11
BRANCH   7  16
ATOM     16  C   UNL     1      -2.091   9.560  26.725  0.00  0.00    +0.414 C 
ATOM     17  O   UNL     1      -2.014   8.393  27.107  0.00  0.00    -0.240 OA
ATOM     18  O   UNL     1      -1.067  10.149  26.375  0.00  0.00    -0.240 OA
ENDBRANCH   7  16
BRANCH   9  19
ATOM     19  O   UNL     1      -2.943  13.091  24.179  0.00  0.00    -0.390 OA
ATOM     20  H   UNL     1      -3.017  13.098  23.221  0.00  0.00    +0.210 HD
ENDBRANCH   9  19
BRANCH   7  21
ATOM     21  O   UNL     1      -4.012  10.346  28.024  0.00  0.00    -0.343 OA
ATOM     22  C   UNL     1      -4.038  11.672  28.608  0.00  0.00    +0.198 C 
ENDBRANCH   7  21
ENDBRANCH   4   5
BRANCH   4  23
ATOM     23  O   UNL     1      -4.582   8.115  22.482  0.00  0.00    -0.387 OA
ATOM     24  H   UNL     1      -5.014   8.556  21.747  0.00  0.00    +0.210 HD
ENDBRANCH   4  23
ENDBRANCH   1   4
BRANCH   1  25
ATOM     25  C   UNL     1      -7.196   8.660  22.333  0.00  0.00    +0.141 C 
BRANCH  25  28
ATOM     26  C   UNL     1      -6.425   8.768  19.988  0.00  0.00    +0.401 C 
ATOM     27  O   UNL     1      -6.017   7.604  19.970  0.00  0.00    -0.226 OA
ATOM     28  N   UNL     1      -6.984   9.345  21.052  0.00  0.00    -0.279 N 
ATOM     29  H   UNL     1      -7.278  10.308  20.973  0.00  0.00    +0.152 HD
BRANCH  26  30
ATOM     30  O   UNL     1      -6.297   9.567  18.809  0.00  0.00    -0.444 OA
BRANCH  30  31
ATOM     31  C   UNL     1      -5.695   8.792  17.769  0.00  0.00    +0.292 C 
BRANCH  31  33
ATOM     32  N   UNL     1      -4.081   9.169  15.929  0.00  0.00    -0.131 NA
ATOM     33  C   UNL     1      -4.980   9.676  16.828  0.00  0.00    +0.120 A 
ATOM     34  C   UNL     1      -5.069  11.041  16.656  0.00  0.00    +0.137 A 
ATOM     35  N   UNL     1      -4.230  11.296  15.614  0.00  0.00    -0.251 N 
ATOM     36  N   UNL     1      -3.633  10.170  15.183  0.00  0.00    -0.065 NA
BRANCH  35  37
ATOM     37  C   UNL     1      -3.991  12.555  14.939  0.00  0.00    +0.150 C 
BRANCH  37  38
ATOM     38  C   UNL     1      -4.238  12.449  13.442  0.00  0.00    +0.084 C 
BRANCH  38  39
ATOM     39  C   UNL     1      -2.962  12.578  12.602  0.00  0.00    +0.252 C 
BRANCH  39  40
ATOM     40  O   UNL     1      -2.319  11.306  12.484  0.00  0.00    -0.352 OA
BRANCH  40  41
ATOM     41  C   UNL     1      -3.015  10.376  11.656  0.00  0.00    +0.159 C 
ATOM     42  C   UNL     1      -3.007  10.888  10.230  0.00  0.00    +0.034 C 
ENDBRANCH  40  41
ENDBRANCH  39  40
BRANCH  39  43
ATOM     43  O   UNL     1      -2.094  13.501  13.271  0.00  0.00    -0.352 OA
BRANCH  43  44
ATOM     44  C   UNL     1      -1.197  14.157  12.373  0.00  0.00    +0.159 C 
ATOM     45  C   UNL     1      -1.465  15.649  12.406  0.00  0.00    +0.034 C 
ENDBRANCH  43  44
ENDBRANCH  39  43
ENDBRANCH  38  39
ENDBRANCH  37  38
ENDBRANCH  35  37
ENDBRANCH  31  33
ENDBRANCH  30  31
ENDBRANCH  26  30
ENDBRANCH  25  28
ENDBRANCH   1  25
TORSDOF 20
