REMARK VINA RESULT:    -4.531      3.149      9.030
REMARK INTER + INTRA:         -12.954
REMARK INTER:                  -7.666
REMARK INTRA:                  -5.288
REMARK UNBOUND:                -3.788
REMARK  Name = lig_assembled_81.pdb
REMARK  22 active torsions:
REMARK  status: ('A' for Active; 'I' for Inactive)
REMARK    1  A    between atoms: _2  and  _12
REMARK    2  A    between atoms: _7  and  _30
REMARK    3  A    between atoms: _8  and  _24
REMARK    4  A    between atoms: _9  and  _10
REMARK    5  A    between atoms: _9  and  _30
REMARK    6  A    between atoms: _14  and  _15
REMARK    7  A    between atoms: _21  and  _22
REMARK    8  A    between atoms: _22  and  _23
REMARK    9  A    between atoms: _23  and  _25
REMARK   10  A    between atoms: _24  and  _25
REMARK   11  A    between atoms: _26  and  _46
REMARK   12  A    between atoms: _28  and  _34
REMARK   13  A    between atoms: _29  and  _33
REMARK   14  A    between atoms: _33  and  _34
REMARK   15  A    between atoms: _36  and  _37
REMARK   16  A    between atoms: _38  and  _39
REMARK   17  A    between atoms: _40  and  _42
REMARK   18  A    between atoms: _42  and  _43
REMARK   19  A    between atoms: _42  and  _44
REMARK   20  A    between atoms: _44  and  _45
REMARK   21  A    between atoms: _44  and  _46
REMARK   22  A    between atoms: _47  and  _49
REMARK                            x       y       z     vdW  Elec       q    Type
REMARK                         _______ _______ _______ _____ _____    ______ ____
ROOT
ATOM      1  C   UNL     1      -5.380  13.155  32.192  0.00  0.00    +0.401 C 
ATOM      2  O   UNL     1      -6.274  12.747  32.935  0.00  0.00    -0.226 OA
ATOM      3  N   UNL     1      -4.178  12.586  32.088  0.00  0.00    -0.279 N 
ATOM      4  H   UNL     1      -3.513  12.989  31.443  0.00  0.00    +0.152 HD
ENDROOT
BRANCH   1   5
ATOM      5  O   UNL     1      -5.624  14.306  31.379  0.00  0.00    -0.444 OA
BRANCH   5   6
ATOM      6  C   UNL     1      -6.819  14.110  30.620  0.00  0.00    +0.289 C 
BRANCH   6   8
ATOM      7  N   UNL     1      -7.526  12.744  28.710  0.00  0.00    -0.130 NA
ATOM      8  C   UNL     1      -6.520  13.382  29.370  0.00  0.00    +0.100 C 
ATOM      9  C   UNL     1      -5.337  13.165  28.688  0.00  0.00    +0.124 C 
ATOM     10  N   UNL     1      -5.716  12.500  27.530  0.00  0.00    -0.187 N 
ATOM     11  N   UNL     1      -6.996  12.106  27.680  0.00  0.00    -0.010 NA
BRANCH  10  12
ATOM     12  C   UNL     1      -4.883  12.079  26.439  0.00  0.00    +0.150 A 
ATOM     13  C   UNL     1      -5.226  12.145  25.065  0.00  0.00    +0.022 A 
ATOM     14  C   UNL     1      -4.239  11.582  24.214  0.00  0.00    +0.081 A 
ATOM     15  N   UNL     1      -3.125  10.979  24.712  0.00  0.00    -0.214 NA
ATOM     16  C   UNL     1      -2.929  10.954  26.019  0.00  0.00    +0.215 A 
ATOM     17  N   UNL     1      -1.845  10.262  26.504  0.00  0.00    -0.327 N 
ATOM     18  H   UNL     1      -1.132  10.157  25.799  0.00  0.00    +0.145 HD
ATOM     19  H   UNL     1      -1.580  10.578  27.425  0.00  0.00    +0.145 HD
ATOM     20  N   UNL     1      -3.710  11.559  26.893  0.00  0.00    -0.198 NA
BRANCH  14  21
ATOM     21  C   UNL     1      -4.239  11.519  22.703  0.00  0.00    +0.001 A 
ATOM     22  C   UNL     1      -3.545  12.404  21.857  0.00  0.00    +0.010 A 
ATOM     23  C   UNL     1      -3.574  12.286  20.457  0.00  0.00    +0.001 A 
ATOM     24  C   UNL     1      -4.248  11.243  19.852  0.00  0.00    +0.000 A 
ATOM     25  C   UNL     1      -4.904  10.308  20.649  0.00  0.00    +0.001 A 
ATOM     26  C   UNL     1      -4.905  10.458  22.044  0.00  0.00    +0.010 A 
ENDBRANCH  14  21
BRANCH  13  27
ATOM     27  C   UNL     1      -6.433  12.827  24.413  0.00  0.00    +0.069 C 
BRANCH  27  28
ATOM     28  C   UNL     1      -6.441  14.320  24.144  0.00  0.00    +0.164 C 
BRANCH  28  29
ATOM     29  O   UNL     1      -5.216  14.886  23.665  0.00  0.00    -0.380 OA
BRANCH  29  30
ATOM     30  C   UNL     1      -5.565  15.704  22.531  0.00  0.00    +0.156 C 
ATOM     31  C   UNL     1      -6.335  14.920  21.493  0.00  0.00    +0.034 C 
ENDBRANCH  29  30
ENDBRANCH  28  29
ENDBRANCH  27  28
ENDBRANCH  13  27
ENDBRANCH  10  12
ENDBRANCH   6   8
ENDBRANCH   5   6
ENDBRANCH   1   5
BRANCH   3  32
ATOM     32  C   UNL     1      -3.767  11.406  32.859  0.00  0.00    +0.141 C 
BRANCH  32  33
ATOM     33  C   UNL     1      -2.977  10.417  32.008  0.00  0.00    +0.163 C 
BRANCH  33  34
ATOM     34  O   UNL     1      -2.952   9.130  32.646  0.00  0.00    -0.388 OA
ATOM     35  H   UNL     1      -3.589   8.550  32.222  0.00  0.00    +0.210 HD
ENDBRANCH  33  34
BRANCH  33  36
ATOM     36  C   UNL     1      -3.609  10.325  30.608  0.00  0.00    +0.175 C 
BRANCH  36  37
ATOM     37  C   UNL     1      -3.795   8.870  30.153  0.00  0.00    +0.176 C 
ATOM     38  O   UNL     1      -3.311   8.764  28.785  0.00  0.00    -0.332 OA
ATOM     39  C   UNL     1      -3.312   7.414  28.215  0.00  0.00    +0.277 C 
ATOM     40  C   UNL     1      -4.722   6.783  28.322  0.00  0.00    +0.110 C 
ATOM     41  C   UNL     1      -5.292   6.900  29.751  0.00  0.00    +0.143 C 
ATOM     42  C   UNL     1      -5.240   8.346  30.246  0.00  0.00    +0.133 C 
BRANCH  42  43
ATOM     43  N   UNL     1      -5.704   8.430  31.640  0.00  0.00    -0.308 N 
ATOM     44  H   UNL     1      -5.229   7.866  32.330  0.00  0.00    +0.149 HD
ATOM     45  C   UNL     1      -6.712   9.204  32.052  0.00  0.00    +0.210 C 
ATOM     46  C   UNL     1      -7.432  10.031  30.971  0.00  0.00    +0.109 C 
ATOM     47  O   UNL     1      -7.070   9.266  33.229  0.00  0.00    -0.276 OA
ENDBRANCH  42  43
BRANCH  39  48
ATOM     48  C   UNL     1      -2.289   6.514  28.938  0.00  0.00    +0.414 C 
ATOM     49  O   UNL     1      -2.396   5.289  28.890  0.00  0.00    -0.240 OA
ATOM     50  O   UNL     1      -1.356   7.012  29.570  0.00  0.00    -0.240 OA
ENDBRANCH  39  48
BRANCH  39  51
ATOM     51  O   UNL     1      -2.963   7.519  26.811  0.00  0.00    -0.343 OA
ATOM     52  C   UNL     1      -3.773   6.715  25.917  0.00  0.00    +0.198 C 
ENDBRANCH  39  51
BRANCH  41  53
ATOM     53  O   UNL     1      -6.645   6.445  29.769  0.00  0.00    -0.390 OA
ATOM     54  H   UNL     1      -7.043   6.588  28.908  0.00  0.00    +0.210 HD
ENDBRANCH  41  53
ENDBRANCH  36  37
BRANCH  36  55
ATOM     55  O   UNL     1      -2.805  11.046  29.652  0.00  0.00    -0.387 OA
ATOM     56  H   UNL     1      -3.169  10.925  28.772  0.00  0.00    +0.210 HD
ENDBRANCH  36  55
ENDBRANCH  33  36
ENDBRANCH  32  33
ENDBRANCH   3  32
TORSDOF 19
