REMARK VINA RESULT:    -4.329      3.915      6.850
REMARK INTER + INTRA:         -11.086
REMARK INTER:                  -8.330
REMARK INTRA:                  -2.756
REMARK UNBOUND:                -2.835
REMARK  Name = lig_assembled_13.pdb
REMARK  20 active torsions:
REMARK  status: ('A' for Active; 'I' for Inactive)
REMARK    1  A    between atoms: _2  and  _9
REMARK    2  A    between atoms: _4  and  _18
REMARK    3  A    between atoms: _5  and  _11
REMARK    4  A    between atoms: _6  and  _7
REMARK    5  A    between atoms: _6  and  _18
REMARK    6  A    between atoms: _9  and  _10
REMARK    7  A    between atoms: _10  and  _12
REMARK    8  A    between atoms: _11  and  _12
REMARK    9  A    between atoms: _14  and  _34
REMARK   10  A    between atoms: _16  and  _22
REMARK   11  A    between atoms: _17  and  _21
REMARK   12  A    between atoms: _21  and  _22
REMARK   13  A    between atoms: _24  and  _25
REMARK   14  A    between atoms: _26  and  _27
REMARK   15  A    between atoms: _28  and  _30
REMARK   16  A    between atoms: _30  and  _31
REMARK   17  A    between atoms: _30  and  _32
REMARK   18  A    between atoms: _32  and  _33
REMARK   19  A    between atoms: _32  and  _34
REMARK   20  A    between atoms: _35  and  _37
REMARK                            x       y       z     vdW  Elec       q    Type
REMARK                         _______ _______ _______ _____ _____    ______ ____
ROOT
ATOM      1  C   UNL     1      -6.302   8.504  22.926  0.00  0.00    +0.163 C 
ENDROOT
BRANCH   1   2
ATOM      2  O   UNL     1      -6.210   8.603  24.357  0.00  0.00    -0.388 OA
ATOM      3  H   UNL     1      -5.867   9.467  24.597  0.00  0.00    +0.210 HD
ENDBRANCH   1   2
BRANCH   1   4
ATOM      4  C   UNL     1      -6.210   9.894  22.271  0.00  0.00    +0.175 C 
BRANCH   4   5
ATOM      5  C   UNL     1      -4.940  10.648  22.692  0.00  0.00    +0.176 C 
ATOM      6  O   UNL     1      -5.226  11.349  23.933  0.00  0.00    -0.332 OA
ATOM      7  C   UNL     1      -4.090  12.044  24.545  0.00  0.00    +0.277 C 
ATOM      8  C   UNL     1      -3.442  13.018  23.531  0.00  0.00    +0.110 C 
ATOM      9  C   UNL     1      -3.148  12.326  22.184  0.00  0.00    +0.143 C 
ATOM     10  C   UNL     1      -4.398  11.632  21.639  0.00  0.00    +0.133 C 
BRANCH  10  11
ATOM     11  N   UNL     1      -4.084  10.904  20.400  0.00  0.00    -0.308 N 
ATOM     12  H   UNL     1      -3.319  10.243  20.422  0.00  0.00    +0.149 HD
ATOM     13  C   UNL     1      -4.743  11.058  19.249  0.00  0.00    +0.210 C 
ATOM     14  C   UNL     1      -5.886  12.091  19.241  0.00  0.00    +0.109 C 
ATOM     15  O   UNL     1      -4.467  10.423  18.230  0.00  0.00    -0.276 OA
ENDBRANCH  10  11
BRANCH   7  16
ATOM     16  C   UNL     1      -3.032  11.034  25.038  0.00  0.00    +0.414 C 
ATOM     17  O   UNL     1      -3.270   9.827  25.016  0.00  0.00    -0.240 OA
ATOM     18  O   UNL     1      -1.943  11.426  25.457  0.00  0.00    -0.240 OA
ENDBRANCH   7  16
BRANCH   7  19
ATOM     19  O   UNL     1      -4.588  12.816  25.667  0.00  0.00    -0.343 OA
ATOM     20  C   UNL     1      -6.008  13.107  25.629  0.00  0.00    +0.198 C 
ENDBRANCH   7  19
BRANCH   9  21
ATOM     21  O   UNL     1      -2.694  13.291  21.234  0.00  0.00    -0.390 OA
ATOM     22  H   UNL     1      -3.444  13.633  20.741  0.00  0.00    +0.210 HD
ENDBRANCH   9  21
ENDBRANCH   4   5
BRANCH   4  23
ATOM     23  O   UNL     1      -7.380  10.673  22.593  0.00  0.00    -0.387 OA
ATOM     24  H   UNL     1      -7.735  11.063  21.792  0.00  0.00    +0.210 HD
ENDBRANCH   4  23
ENDBRANCH   1   4
BRANCH   1  25
ATOM     25  C   UNL     1      -5.185   7.614  22.391  0.00  0.00    +0.141 C 
BRANCH  25  28
ATOM     26  C   UNL     1      -3.283   6.305  23.270  0.00  0.00    +0.401 C 
ATOM     27  O   UNL     1      -3.010   5.794  22.182  0.00  0.00    -0.226 OA
ATOM     28  N   UNL     1      -4.286   7.162  23.461  0.00  0.00    -0.279 N 
ATOM     29  H   UNL     1      -4.437   7.521  24.393  0.00  0.00    +0.152 HD
BRANCH  26  30
ATOM     30  O   UNL     1      -2.490   5.971  24.412  0.00  0.00    -0.444 OA
BRANCH  30  31
ATOM     31  C   UNL     1      -3.339   5.817  25.554  0.00  0.00    +0.292 C 
BRANCH  31  33
ATOM     32  N   UNL     1      -1.732   7.378  26.605  0.00  0.00    -0.131 NA
ATOM     33  C   UNL     1      -2.958   6.771  26.610  0.00  0.00    +0.120 A 
ATOM     34  C   UNL     1      -3.669   7.200  27.704  0.00  0.00    +0.137 A 
ATOM     35  N   UNL     1      -2.796   8.016  28.364  0.00  0.00    -0.241 N 
ATOM     36  N   UNL     1      -1.652   8.158  27.677  0.00  0.00    -0.065 NA
BRANCH  35  37
ATOM     37  C   UNL     1      -3.013   8.764  29.582  0.00  0.00    +0.265 C 
BRANCH  37  38
ATOM     38  C   UNL     1      -3.558  10.136  29.309  0.00  0.00    +0.329 C 
ATOM     39  O   UNL     1      -4.062  10.526  28.265  0.00  0.00    -0.249 OA
BRANCH  38  40
ATOM     40  O   UNL     1      -3.308  10.936  30.390  0.00  0.00    -0.464 OA
BRANCH  40  41
ATOM     41  C   UNL     1      -2.617  10.293  31.471  0.00  0.00    +0.229 C 
ATOM     42  C   UNL     1      -3.461  10.451  32.723  0.00  0.00    +0.048 C 
ENDBRANCH  40  41
ENDBRANCH  38  40
ENDBRANCH  37  38
ENDBRANCH  35  37
ENDBRANCH  31  33
ENDBRANCH  30  31
ENDBRANCH  26  30
ENDBRANCH  25  28
ENDBRANCH   1  25
TORSDOF 17
