REMARK VINA RESULT:    -5.191      5.253      8.439
REMARK INTER + INTRA:         -11.878
REMARK INTER:                  -9.288
REMARK INTRA:                  -2.589
REMARK UNBOUND:                -2.589
REMARK  Name = lig_assembled_82.pdb
REMARK  19 active torsions:
REMARK  status: ('A' for Active; 'I' for Inactive)
REMARK    1  A    between atoms: _2  and  _9
REMARK    2  A    between atoms: _4  and  _22
REMARK    3  A    between atoms: _5  and  _16
REMARK    4  A    between atoms: _6  and  _7
REMARK    5  A    between atoms: _6  and  _22
REMARK    6  A    between atoms: _9  and  _10
REMARK    7  A    between atoms: _16  and  _17
REMARK    8  A    between atoms: _18  and  _38
REMARK    9  A    between atoms: _20  and  _26
REMARK   10  A    between atoms: _21  and  _25
REMARK   11  A    between atoms: _25  and  _26
REMARK   12  A    between atoms: _28  and  _29
REMARK   13  A    between atoms: _30  and  _31
REMARK   14  A    between atoms: _32  and  _34
REMARK   15  A    between atoms: _34  and  _35
REMARK   16  A    between atoms: _34  and  _36
REMARK   17  A    between atoms: _36  and  _37
REMARK   18  A    between atoms: _36  and  _38
REMARK   19  A    between atoms: _39  and  _41
REMARK                            x       y       z     vdW  Elec       q    Type
REMARK                         _______ _______ _______ _____ _____    ______ ____
ROOT
ATOM      1  C   UNL     1      -6.362   9.346  23.195  0.00  0.00    +0.163 C 
ENDROOT
BRANCH   1   2
ATOM      2  O   UNL     1      -7.026   9.372  24.470  0.00  0.00    -0.388 OA
ATOM      3  H   UNL     1      -7.599  10.141  24.517  0.00  0.00    +0.210 HD
ENDBRANCH   1   2
BRANCH   1   4
ATOM      4  C   UNL     1      -7.247   8.658  22.161  0.00  0.00    +0.141 C 
BRANCH   4   7
ATOM      5  C   UNL     1      -7.474   8.644  19.700  0.00  0.00    +0.401 C 
ATOM      6  O   UNL     1      -7.995   7.527  19.661  0.00  0.00    -0.226 OA
ATOM      7  N   UNL     1      -7.087   9.246  20.825  0.00  0.00    -0.279 N 
ATOM      8  H   UNL     1      -6.660  10.159  20.755  0.00  0.00    +0.152 HD
BRANCH   5   9
ATOM      9  O   UNL     1      -7.257   9.353  18.478  0.00  0.00    -0.444 OA
BRANCH   9  10
ATOM     10  C   UNL     1      -6.611  10.598  18.756  0.00  0.00    +0.292 C 
BRANCH  10  12
ATOM     11  N   UNL     1      -5.865  12.196  17.020  0.00  0.00    -0.131 NA
ATOM     12  C   UNL     1      -5.723  10.985  17.655  0.00  0.00    +0.120 A 
ATOM     13  C   UNL     1      -4.675  10.302  17.066  0.00  0.00    +0.137 A 
ATOM     14  N   UNL     1      -4.315  11.090  16.009  0.00  0.00    -0.247 N 
ATOM     15  N   UNL     1      -4.973  12.265  16.042  0.00  0.00    -0.065 NA
BRANCH  14  16
ATOM     16  C   UNL     1      -3.432  10.763  14.886  0.00  0.00    +0.176 C 
BRANCH  16  17
ATOM     17  C   UNL     1      -3.363   9.280  14.616  0.00  0.00    -0.049 C 
ATOM     18  C   UNL     1      -2.068   8.582  14.890  0.00  0.00    +0.023 C 
ATOM     19  C   UNL     1      -2.114   7.093  15.461  0.00  0.00    -0.025 C 
ATOM     20  C   UNL     1      -3.112   6.402  16.398  0.00  0.00    +0.012 C 
ATOM     21  C   UNL     1      -2.494   6.758  13.943  0.00  0.00    -0.000 C 
ATOM     22  C   UNL     1      -3.960   7.116  13.544  0.00  0.00    +0.031 C 
ATOM     23  C   UNL     1      -0.719   6.901  16.107  0.00  0.00    +0.012 C 
ATOM     24  C   UNL     1      -1.542   7.920  13.553  0.00  0.00    +0.012 C 
ATOM     25  C   UNL     1      -4.289   8.533  13.985  0.00  0.00    -0.025 C 
ENDBRANCH  16  17
ENDBRANCH  14  16
ENDBRANCH  10  12
ENDBRANCH   9  10
ENDBRANCH   5   9
ENDBRANCH   4   7
ENDBRANCH   1   4
BRANCH   1  26
ATOM     26  C   UNL     1      -5.015   8.609  23.291  0.00  0.00    +0.175 C 
BRANCH  26  27
ATOM     27  C   UNL     1      -3.979   9.403  24.100  0.00  0.00    +0.176 C 
ATOM     28  O   UNL     1      -4.362   9.340  25.502  0.00  0.00    -0.332 OA
ATOM     29  C   UNL     1      -3.424   9.958  26.443  0.00  0.00    +0.277 C 
ATOM     30  C   UNL     1      -3.144  11.427  26.043  0.00  0.00    +0.110 C 
ATOM     31  C   UNL     1      -2.764  11.549  24.552  0.00  0.00    +0.143 C 
ATOM     32  C   UNL     1      -3.806  10.869  23.663  0.00  0.00    +0.133 C 
BRANCH  32  33
ATOM     33  N   UNL     1      -3.389  10.915  22.253  0.00  0.00    -0.308 N 
ATOM     34  H   UNL     1      -2.602  10.346  21.975  0.00  0.00    +0.149 HD
ATOM     35  C   UNL     1      -3.982  11.660  21.316  0.00  0.00    +0.210 C 
ATOM     36  C   UNL     1      -5.162  12.536  21.777  0.00  0.00    +0.109 C 
ATOM     37  O   UNL     1      -3.620  11.668  20.139  0.00  0.00    -0.276 OA
ENDBRANCH  32  33
BRANCH  29  38
ATOM     38  C   UNL     1      -2.096   9.174  26.487  0.00  0.00    +0.414 C 
ATOM     39  O   UNL     1      -2.101   7.944  26.469  0.00  0.00    -0.240 OA
ATOM     40  O   UNL     1      -1.020   9.771  26.540  0.00  0.00    -0.240 OA
ENDBRANCH  29  38
BRANCH  29  41
ATOM     41  O   UNL     1      -4.038   9.952  27.758  0.00  0.00    -0.343 OA
ATOM     42  C   UNL     1      -4.010  11.224  28.453  0.00  0.00    +0.198 C 
ENDBRANCH  29  41
BRANCH  31  43
ATOM     43  O   UNL     1      -2.664  12.927  24.191  0.00  0.00    -0.390 OA
ATOM     44  H   UNL     1      -3.448  13.394  24.488  0.00  0.00    +0.210 HD
ENDBRANCH  31  43
ENDBRANCH  26  27
BRANCH  26  45
ATOM     45  O   UNL     1      -4.507   8.329  21.972  0.00  0.00    -0.387 OA
ATOM     46  H   UNL     1      -5.221   8.393  21.333  0.00  0.00    +0.210 HD
ENDBRANCH  26  45
ENDBRANCH   1  26
TORSDOF 15
