REMARK VINA RESULT:    -4.019      2.577      7.545
REMARK INTER + INTRA:         -10.789
REMARK INTER:                  -7.179
REMARK INTRA:                  -3.611
REMARK UNBOUND:                -2.894
REMARK  Name = lig_assembled_17.pdb
REMARK  22 active torsions:
REMARK  status: ('A' for Active; 'I' for Inactive)
REMARK    1  A    between atoms: _2  and  _10
REMARK    2  A    between atoms: _3  and  _11
REMARK    3  A    between atoms: _3  and  _12
REMARK    4  A    between atoms: _3  and  _14
REMARK    5  A    between atoms: _5  and  _19
REMARK    6  A    between atoms: _6  and  _14
REMARK    7  A    between atoms: _7  and  _8
REMARK    8  A    between atoms: _7  and  _19
REMARK    9  A    between atoms: _10  and  _11
REMARK   10  A    between atoms: _12  and  _13
REMARK   11  A    between atoms: _15  and  _35
REMARK   12  A    between atoms: _17  and  _23
REMARK   13  A    between atoms: _18  and  _22
REMARK   14  A    between atoms: _22  and  _23
REMARK   15  A    between atoms: _25  and  _26
REMARK   16  A    between atoms: _27  and  _28
REMARK   17  A    between atoms: _29  and  _31
REMARK   18  A    between atoms: _31  and  _32
REMARK   19  A    between atoms: _31  and  _33
REMARK   20  A    between atoms: _33  and  _34
REMARK   21  A    between atoms: _33  and  _35
REMARK   22  A    between atoms: _36  and  _38
REMARK                            x       y       z     vdW  Elec       q    Type
REMARK                         _______ _______ _______ _____ _____    ______ ____
ROOT
ATOM      1  C   UNL     1      -4.075  10.974  30.725  0.00  0.00    +0.163 C 
ENDROOT
BRANCH   1   2
ATOM      2  O   UNL     1      -2.998  10.022  30.750  0.00  0.00    -0.388 OA
ATOM      3  H   UNL     1      -3.173   9.358  31.421  0.00  0.00    +0.210 HD
ENDBRANCH   1   2
BRANCH   1   4
ATOM      4  C   UNL     1      -3.802  12.086  29.697  0.00  0.00    +0.175 C 
BRANCH   4   5
ATOM      5  C   UNL     1      -5.100  12.691  29.143  0.00  0.00    +0.176 C 
ATOM      6  O   UNL     1      -5.010  12.691  27.691  0.00  0.00    -0.332 OA
ATOM      7  C   UNL     1      -6.211  13.139  26.981  0.00  0.00    +0.277 C 
ATOM      8  C   UNL     1      -6.642  14.541  27.478  0.00  0.00    +0.110 C 
ATOM      9  C   UNL     1      -6.722  14.599  29.018  0.00  0.00    +0.143 C 
ATOM     10  C   UNL     1      -5.421  14.108  29.654  0.00  0.00    +0.133 C 
BRANCH  10  11
ATOM     11  N   UNL     1      -5.540  14.086  31.120  0.00  0.00    -0.308 N 
ATOM     12  H   UNL     1      -6.230  13.471  31.528  0.00  0.00    +0.149 HD
ATOM     13  C   UNL     1      -4.796  14.825  31.947  0.00  0.00    +0.210 C 
ATOM     14  C   UNL     1      -3.772  15.772  31.293  0.00  0.00    +0.109 C 
ATOM     15  O   UNL     1      -4.908  14.775  33.173  0.00  0.00    -0.276 OA
ENDBRANCH  10  11
BRANCH   7  16
ATOM     16  C   UNL     1      -7.370  12.141  27.183  0.00  0.00    +0.414 C 
ATOM     17  O   UNL     1      -8.516  12.551  27.367  0.00  0.00    -0.240 OA
ATOM     18  O   UNL     1      -7.160  10.928  27.162  0.00  0.00    -0.240 OA
ENDBRANCH   7  16
BRANCH   9  19
ATOM     19  O   UNL     1      -6.973  15.941  29.437  0.00  0.00    -0.390 OA
ATOM     20  H   UNL     1      -6.341  16.188  30.117  0.00  0.00    +0.210 HD
ENDBRANCH   9  19
BRANCH   7  21
ATOM     21  O   UNL     1      -5.888  13.234  25.569  0.00  0.00    -0.343 OA
ATOM     22  C   UNL     1      -6.574  14.293  24.855  0.00  0.00    +0.198 C 
ENDBRANCH   7  21
ENDBRANCH   4   5
BRANCH   4  23
ATOM     23  O   UNL     1      -2.991  11.578  28.619  0.00  0.00    -0.387 OA
ATOM     24  H   UNL     1      -3.234  10.667  28.438  0.00  0.00    +0.210 HD
ENDBRANCH   4  23
ENDBRANCH   1   4
BRANCH   1  25
ATOM     25  C   UNL     1      -5.384  10.271  30.381  0.00  0.00    +0.141 C 
BRANCH  25  28
ATOM     26  C   UNL     1      -4.999   8.334  28.896  0.00  0.00    +0.401 C 
ATOM     27  O   UNL     1      -4.701   7.569  29.816  0.00  0.00    -0.226 OA
ATOM     28  N   UNL     1      -5.325   9.616  29.069  0.00  0.00    -0.279 N 
ATOM     29  H   UNL     1      -5.544  10.166  28.251  0.00  0.00    +0.152 HD
BRANCH  26  30
ATOM     30  O   UNL     1      -4.995   7.841  27.554  0.00  0.00    -0.444 OA
BRANCH  30  31
ATOM     31  C   UNL     1      -3.647   7.675  27.109  0.00  0.00    +0.292 C 
BRANCH  31  33
ATOM     32  N   UNL     1      -1.863   9.314  26.618  0.00  0.00    -0.131 NA
ATOM     33  C   UNL     1      -3.164   8.913  26.471  0.00  0.00    +0.120 A 
ATOM     34  C   UNL     1      -3.829   9.819  25.674  0.00  0.00    +0.137 A 
ATOM     35  N   UNL     1      -2.871  10.733  25.355  0.00  0.00    -0.250 N 
ATOM     36  N   UNL     1      -1.694  10.435  25.932  0.00  0.00    -0.065 NA
BRANCH  35  37
ATOM     37  C   UNL     1      -2.979  11.884  24.481  0.00  0.00    +0.160 C 
BRANCH  37  38
ATOM     38  C   UNL     1      -3.420  11.455  23.075  0.00  0.00    +0.107 C 
BRANCH  38  39
ATOM     39  N   UNL     1      -4.791  11.854  22.672  0.00  0.00    -0.301 NA
BRANCH  39  40
ATOM     40  C   UNL     1      -4.825  12.674  21.448  0.00  0.00    +0.081 C 
ATOM     41  C   UNL     1      -3.878  12.260  20.326  0.00  0.00    +0.020 C 
ENDBRANCH  39  40
BRANCH  39  42
ATOM     42  C   UNL     1      -5.634  10.643  22.590  0.00  0.00    +0.081 C 
ATOM     43  C   UNL     1      -6.879  10.666  23.471  0.00  0.00    +0.020 C 
ENDBRANCH  39  42
ENDBRANCH  38  39
ENDBRANCH  37  38
ENDBRANCH  35  37
ENDBRANCH  31  33
ENDBRANCH  30  31
ENDBRANCH  26  30
ENDBRANCH  25  28
ENDBRANCH   1  25
TORSDOF 18
