REMARK VINA RESULT:    -5.420      3.103      4.445
REMARK INTER + INTRA:         -12.026
REMARK INTER:                  -9.203
REMARK INTRA:                  -2.823
REMARK UNBOUND:                -1.695
REMARK  Name = lig_assembled_12.pdb
REMARK  19 active torsions:
REMARK  status: ('A' for Active; 'I' for Inactive)
REMARK    1  A    between atoms: _2  and  _9
REMARK    2  A    between atoms: _4  and  _21
REMARK    3  A    between atoms: _6  and  _7
REMARK    4  A    between atoms: _6  and  _21
REMARK    5  A    between atoms: _9  and  _16
REMARK    6  A    between atoms: _10  and  _11
REMARK    7  A    between atoms: _10  and  _16
REMARK    8  A    between atoms: _17  and  _37
REMARK    9  A    between atoms: _19  and  _25
REMARK   10  A    between atoms: _20  and  _24
REMARK   11  A    between atoms: _24  and  _25
REMARK   12  A    between atoms: _27  and  _28
REMARK   13  A    between atoms: _29  and  _30
REMARK   14  A    between atoms: _31  and  _33
REMARK   15  A    between atoms: _33  and  _34
REMARK   16  A    between atoms: _33  and  _35
REMARK   17  A    between atoms: _35  and  _36
REMARK   18  A    between atoms: _35  and  _37
REMARK   19  A    between atoms: _38  and  _40
REMARK                            x       y       z     vdW  Elec       q    Type
REMARK                         _______ _______ _______ _____ _____    ______ ____
ROOT
ATOM      1  C   UNL     1      -2.978  11.977  23.257  0.00  0.00    +0.163 C 
ENDROOT
BRANCH   1   2
ATOM      2  O   UNL     1      -2.180  12.249  24.421  0.00  0.00    -0.388 OA
ATOM      3  H   UNL     1      -2.175  11.479  24.994  0.00  0.00    +0.210 HD
ENDBRANCH   1   2
BRANCH   1   4
ATOM      4  C   UNL     1      -3.797  10.688  23.442  0.00  0.00    +0.175 C 
BRANCH   4   5
ATOM      5  C   UNL     1      -3.819  10.221  24.905  0.00  0.00    +0.176 C 
ATOM      6  O   UNL     1      -2.999   9.025  25.005  0.00  0.00    -0.332 OA
ATOM      7  C   UNL     1      -2.816   8.493  26.359  0.00  0.00    +0.277 C 
ATOM      8  C   UNL     1      -4.188   8.245  27.033  0.00  0.00    +0.110 C 
ATOM      9  C   UNL     1      -5.107   9.480  26.924  0.00  0.00    +0.143 C 
ATOM     10  C   UNL     1      -5.225   9.950  25.474  0.00  0.00    +0.133 C 
BRANCH  10  11
ATOM     11  N   UNL     1      -6.032  11.178  25.394  0.00  0.00    -0.308 N 
ATOM     12  H   UNL     1      -5.751  11.965  25.962  0.00  0.00    +0.149 HD
ATOM     13  C   UNL     1      -7.112  11.319  24.620  0.00  0.00    +0.210 C 
ATOM     14  C   UNL     1      -7.529  10.093  23.787  0.00  0.00    +0.109 C 
ATOM     15  O   UNL     1      -7.760  12.365  24.562  0.00  0.00    -0.276 OA
ENDBRANCH  10  11
BRANCH   7  16
ATOM     16  C   UNL     1      -1.986   9.467  27.221  0.00  0.00    +0.414 C 
ATOM     17  O   UNL     1      -1.191  10.242  26.691  0.00  0.00    -0.240 OA
ATOM     18  O   UNL     1      -2.112   9.479  28.447  0.00  0.00    -0.240 OA
ENDBRANCH   7  16
BRANCH   9  19
ATOM     19  O   UNL     1      -6.407   9.158  27.421  0.00  0.00    -0.390 OA
ATOM     20  H   UNL     1      -6.476   9.431  28.339  0.00  0.00    +0.210 HD
ENDBRANCH   9  19
BRANCH   7  21
ATOM     21  O   UNL     1      -2.123   7.223  26.253  0.00  0.00    -0.343 OA
ATOM     22  C   UNL     1      -2.914   6.137  25.709  0.00  0.00    +0.198 C 
ENDBRANCH   7  21
ENDBRANCH   4   5
BRANCH   4  23
ATOM     23  O   UNL     1      -3.277   9.643  22.595  0.00  0.00    -0.387 OA
ATOM     24  H   UNL     1      -2.476   9.950  22.164  0.00  0.00    +0.210 HD
ENDBRANCH   4  23
ENDBRANCH   1   4
BRANCH   1  25
ATOM     25  C   UNL     1      -3.921  13.145  22.987  0.00  0.00    +0.141 C 
BRANCH  25  28
ATOM     26  C   UNL     1      -5.882  13.596  21.553  0.00  0.00    +0.401 C 
ATOM     27  O   UNL     1      -6.306  14.514  22.260  0.00  0.00    -0.226 OA
ATOM     28  N   UNL     1      -4.779  12.897  21.821  0.00  0.00    -0.279 N 
ATOM     29  H   UNL     1      -4.518  12.156  21.186  0.00  0.00    +0.152 HD
BRANCH  26  30
ATOM     30  O   UNL     1      -6.605  13.239  20.372  0.00  0.00    -0.444 OA
BRANCH  30  31
ATOM     31  C   UNL     1      -7.233  11.968  20.563  0.00  0.00    +0.292 C 
BRANCH  31  33
ATOM     32  N   UNL     1      -5.641  10.068  20.639  0.00  0.00    -0.131 NA
ATOM     33  C   UNL     1      -6.450  10.903  19.910  0.00  0.00    +0.120 A 
ATOM     34  C   UNL     1      -6.369  10.559  18.581  0.00  0.00    +0.139 A 
ATOM     35  N   UNL     1      -5.475   9.529  18.560  0.00  0.00    -0.226 N 
ATOM     36  N   UNL     1      -5.057   9.221  19.802  0.00  0.00    -0.063 NA
BRANCH  35  37
ATOM     37  C   UNL     1      -5.008   8.758  17.421  0.00  0.00    +0.305 C 
BRANCH  37  38
ATOM     38  O   UNL     1      -3.828   9.365  16.898  0.00  0.00    -0.353 OA
BRANCH  38  39
ATOM     39  C   UNL     1      -3.820   9.359  15.476  0.00  0.00    +0.197 C 
BRANCH  39  40
ATOM     40  C   UNL     1      -3.729  10.789  15.018  0.00  0.00    -0.022 A 
ATOM     41  C   UNL     1      -3.975  11.841  15.912  0.00  0.00    +0.006 A 
ATOM     42  C   UNL     1      -3.929  13.166  15.477  0.00  0.00    +0.000 A 
ATOM     43  C   UNL     1      -3.644  13.453  14.143  0.00  0.00    +0.000 A 
ATOM     44  C   UNL     1      -3.408  12.417  13.242  0.00  0.00    +0.000 A 
ATOM     45  C   UNL     1      -3.454  11.090  13.676  0.00  0.00    +0.006 A 
ENDBRANCH  39  40
ENDBRANCH  38  39
ENDBRANCH  37  38
ENDBRANCH  35  37
ENDBRANCH  31  33
ENDBRANCH  30  31
ENDBRANCH  26  30
ENDBRANCH  25  28
ENDBRANCH   1  25
TORSDOF 17
