REMARK VINA RESULT:    -4.902      8.359     12.252
REMARK INTER + INTRA:         -10.532
REMARK INTER:                  -8.079
REMARK INTRA:                  -2.452
REMARK UNBOUND:                -2.334
REMARK  Name = lig_assembled_65.pdb
REMARK  16 active torsions:
REMARK  status: ('A' for Active; 'I' for Inactive)
REMARK    1  A    between atoms: _8  and  _20
REMARK    2  A    between atoms: _9  and  _15
REMARK    3  A    between atoms: _10  and  _11
REMARK    4  A    between atoms: _10  and  _20
REMARK    5  A    between atoms: _16  and  _36
REMARK    6  A    between atoms: _18  and  _24
REMARK    7  A    between atoms: _19  and  _23
REMARK    8  A    between atoms: _23  and  _24
REMARK    9  A    between atoms: _26  and  _27
REMARK   10  A    between atoms: _28  and  _29
REMARK   11  A    between atoms: _30  and  _32
REMARK   12  A    between atoms: _32  and  _33
REMARK   13  A    between atoms: _32  and  _34
REMARK   14  A    between atoms: _34  and  _35
REMARK   15  A    between atoms: _34  and  _36
REMARK   16  A    between atoms: _37  and  _39
REMARK                            x       y       z     vdW  Elec       q    Type
REMARK                         _______ _______ _______ _____ _____    ______ ____
ROOT
ATOM      1  C   UNL     1      -2.982  11.194  26.045  0.00  0.00    +0.163 C 
ENDROOT
BRANCH   1   2
ATOM      2  O   UNL     1      -2.030  12.044  25.384  0.00  0.00    -0.388 OA
ATOM      3  H   UNL     1      -2.004  12.897  25.823  0.00  0.00    +0.210 HD
ENDBRANCH   1   2
BRANCH   1   4
ATOM      4  C   UNL     1      -2.270  10.299  27.054  0.00  0.00    +0.141 C 
BRANCH   4   7
ATOM      5  C   UNL     1      -3.626   9.581  28.992  0.00  0.00    +0.401 C 
ATOM      6  O   UNL     1      -4.017   8.543  28.453  0.00  0.00    -0.226 OA
ATOM      7  N   UNL     1      -2.812  10.463  28.409  0.00  0.00    -0.279 N 
ATOM      8  H   UNL     1      -2.554  11.290  28.928  0.00  0.00    +0.152 HD
BRANCH   5   9
ATOM      9  O   UNL     1      -4.061   9.880  30.320  0.00  0.00    -0.444 OA
BRANCH   9  10
ATOM     10  C   UNL     1      -2.924  10.140  31.148  0.00  0.00    +0.292 C 
BRANCH  10  12
ATOM     11  N   UNL     1      -1.946  12.031  32.414  0.00  0.00    -0.131 NA
ATOM     12  C   UNL     1      -2.875  11.566  31.523  0.00  0.00    +0.121 A 
ATOM     13  C   UNL     1      -3.662  12.613  31.108  0.00  0.00    +0.149 A 
ATOM     14  N   UNL     1      -3.178  13.712  31.786  0.00  0.00    -0.155 N 
ATOM     15  C   UNL     1      -3.666  15.050  31.717  0.00  0.00    +0.416 C 
ATOM     16  N   UNL     1      -3.062  15.991  32.450  0.00  0.00    +0.041 NA
ATOM     17  C   UNL     1      -3.585  17.211  32.347  0.00  0.00    +0.339 C 
ATOM     18  C   UNL     1      -2.961  18.305  33.154  0.00  0.00    +0.149 C 
ATOM     19  N   UNL     1      -4.633  17.521  31.583  0.00  0.00    +0.007 NA
ATOM     20  C   UNL     1      -5.166  16.514  30.908  0.00  0.00    +0.386 C 
ATOM     21  N   UNL     1      -6.259  16.790  30.114  0.00  0.00    -0.296 N 
ATOM     22  H   UNL     1      -6.289  17.772  29.875  0.00  0.00    +0.148 HD
ATOM     23  H   UNL     1      -6.344  16.123  29.361  0.00  0.00    +0.148 HD
ATOM     24  N   UNL     1      -4.719  15.271  30.916  0.00  0.00    -0.290 NA
ATOM     25  N   UNL     1      -2.133  13.337  32.566  0.00  0.00    -0.055 NA
ENDBRANCH  10  12
ENDBRANCH   9  10
ENDBRANCH   5   9
ENDBRANCH   4   7
ENDBRANCH   1   4
BRANCH   1  26
ATOM     26  C   UNL     1      -3.738  10.321  25.028  0.00  0.00    +0.175 C 
BRANCH  26  27
ATOM     27  C   UNL     1      -4.755  11.134  24.213  0.00  0.00    +0.176 C 
ATOM     28  O   UNL     1      -4.019  11.908  23.226  0.00  0.00    -0.332 OA
ATOM     29  C   UNL     1      -4.839  12.671  22.280  0.00  0.00    +0.277 C 
ATOM     30  C   UNL     1      -5.825  13.592  23.039  0.00  0.00    +0.110 C 
ATOM     31  C   UNL     1      -6.608  12.820  24.121  0.00  0.00    +0.143 C 
ATOM     32  C   UNL     1      -5.658  12.060  25.048  0.00  0.00    +0.133 C 
BRANCH  32  33
ATOM     33  N   UNL     1      -6.418  11.259  26.020  0.00  0.00    -0.308 N 
ATOM     34  H   UNL     1      -6.950  10.473  25.672  0.00  0.00    +0.149 HD
ATOM     35  C   UNL     1      -6.452  11.502  27.333  0.00  0.00    +0.210 C 
ATOM     36  C   UNL     1      -5.652  12.721  27.830  0.00  0.00    +0.109 C 
ATOM     37  O   UNL     1      -7.085  10.805  28.127  0.00  0.00    -0.276 OA
ENDBRANCH  32  33
BRANCH  29  38
ATOM     38  C   UNL     1      -5.628  11.724  21.352  0.00  0.00    +0.414 C 
ATOM     39  O   UNL     1      -6.690  12.090  20.850  0.00  0.00    -0.240 OA
ATOM     40  O   UNL     1      -5.203  10.595  21.105  0.00  0.00    -0.240 OA
ENDBRANCH  29  38
BRANCH  29  41
ATOM     41  O   UNL     1      -3.953  13.504  21.488  0.00  0.00    -0.343 OA
ATOM     42  C   UNL     1      -3.648  14.797  22.068  0.00  0.00    +0.198 C 
ENDBRANCH  29  41
BRANCH  31  43
ATOM     43  O   UNL     1      -7.390  13.732  24.894  0.00  0.00    -0.390 OA
ATOM     44  H   UNL     1      -7.226  14.629  24.594  0.00  0.00    +0.210 HD
ENDBRANCH  31  43
ENDBRANCH  26  27
BRANCH  26  45
ATOM     45  O   UNL     1      -4.400   9.233  25.703  0.00  0.00    -0.387 OA
ATOM     46  H   UNL     1      -4.832   8.670  25.056  0.00  0.00    +0.210 HD
ENDBRANCH  26  45
ENDBRANCH   1  26
TORSDOF 13
