REMARK VINA RESULT:    -5.413      4.490      7.295
REMARK INTER + INTRA:         -11.797
REMARK INTER:                  -9.979
REMARK INTRA:                  -1.818
REMARK UNBOUND:                -1.954
REMARK  Name = lig_assembled_60.pdb
REMARK  18 active torsions:
REMARK  status: ('A' for Active; 'I' for Inactive)
REMARK    1  A    between atoms: _2  and  _10
REMARK    2  A    between atoms: _3  and  _41
REMARK    3  A    between atoms: _5  and  _21
REMARK    4  A    between atoms: _7  and  _8
REMARK    5  A    between atoms: _7  and  _21
REMARK    6  A    between atoms: _13  and  _41
REMARK    7  A    between atoms: _17  and  _37
REMARK    8  A    between atoms: _19  and  _25
REMARK    9  A    between atoms: _20  and  _24
REMARK   10  A    between atoms: _24  and  _25
REMARK   11  A    between atoms: _27  and  _28
REMARK   12  A    between atoms: _29  and  _30
REMARK   13  A    between atoms: _31  and  _33
REMARK   14  A    between atoms: _33  and  _34
REMARK   15  A    between atoms: _33  and  _35
REMARK   16  A    between atoms: _35  and  _36
REMARK   17  A    between atoms: _35  and  _37
REMARK   18  A    between atoms: _38  and  _40
REMARK                            x       y       z     vdW  Elec       q    Type
REMARK                         _______ _______ _______ _____ _____    ______ ____
ROOT
ATOM      1  C   UNL     1      -5.961  11.164  19.515  0.00  0.00    +0.141 C 
ENDROOT
BRANCH   1   4
ATOM      2  C   UNL     1      -5.487  12.155  21.728  0.00  0.00    +0.401 C 
ATOM      3  O   UNL     1      -6.473  11.650  22.270  0.00  0.00    -0.226 OA
ATOM      4  N   UNL     1      -5.175  11.986  20.443  0.00  0.00    -0.279 N 
ATOM      5  H   UNL     1      -4.350  12.449  20.087  0.00  0.00    +0.152 HD
BRANCH   2   6
ATOM      6  O   UNL     1      -4.614  12.979  22.504  0.00  0.00    -0.444 OA
BRANCH   6   7
ATOM      7  C   UNL     1      -3.363  12.311  22.686  0.00  0.00    +0.292 C 
BRANCH   7   9
ATOM      8  N   UNL     1      -3.000  10.285  24.061  0.00  0.00    -0.131 NA
ATOM      9  C   UNL     1      -3.343  11.603  23.980  0.00  0.00    +0.121 A 
ATOM     10  C   UNL     1      -3.620  12.074  25.242  0.00  0.00    +0.143 A 
ATOM     11  N   UNL     1      -3.396  11.003  26.079  0.00  0.00    -0.220 N 
ATOM     12  N   UNL     1      -3.044   9.925  25.337  0.00  0.00    -0.060 NA
BRANCH  11  13
ATOM     13  C   UNL     1      -3.454  10.960  27.496  0.00  0.00    +0.067 A 
ATOM     14  C   UNL     1      -3.934  12.059  28.225  0.00  0.00    +0.030 A 
ATOM     15  C   UNL     1      -3.921  12.033  29.621  0.00  0.00    +0.030 A 
ATOM     16  C   UNL     1      -3.443  10.903  30.290  0.00  0.00    +0.105 A 
ATOM     17  C   UNL     1      -2.978   9.796  29.574  0.00  0.00    +0.030 A 
ATOM     18  C   UNL     1      -2.990   9.823  28.176  0.00  0.00    +0.030 A 
BRANCH  16  19
ATOM     19  S   UNL     1      -3.359  10.913  32.056  0.00  0.00    +0.056 S 
ATOM     20  O   UNL     1      -4.363  11.812  32.576  0.00  0.00    -0.153 OA
ATOM     21  O   UNL     1      -3.211   9.556  32.530  0.00  0.00    -0.153 OA
BRANCH  19  22
ATOM     22  N   UNL     1      -1.883  11.662  32.323  0.00  0.00    -0.204 NA
ATOM     23  H   UNL     1      -1.155  11.193  31.785  0.00  0.00    +0.144 HD
ATOM     24  H   UNL     1      -1.693  11.704  33.325  0.00  0.00    +0.144 HD
ENDBRANCH  19  22
ENDBRANCH  16  19
ENDBRANCH  11  13
ENDBRANCH   7   9
ENDBRANCH   6   7
ENDBRANCH   2   6
ENDBRANCH   1   4
BRANCH   1  25
ATOM     25  C   UNL     1      -5.153   9.992  18.967  0.00  0.00    +0.163 C 
BRANCH  25  26
ATOM     26  O   UNL     1      -4.822   9.084  20.031  0.00  0.00    -0.388 OA
ATOM     27  H   UNL     1      -4.615   9.581  20.825  0.00  0.00    +0.210 HD
ENDBRANCH  25  26
BRANCH  25  28
ATOM     28  C   UNL     1      -5.959   9.281  17.867  0.00  0.00    +0.175 C 
BRANCH  28  29
ATOM     29  C   UNL     1      -5.069   8.831  16.698  0.00  0.00    +0.176 C 
ATOM     30  O   UNL     1      -4.144   7.828  17.201  0.00  0.00    -0.332 OA
ATOM     31  C   UNL     1      -3.280   7.202  16.196  0.00  0.00    +0.277 C 
ATOM     32  C   UNL     1      -2.502   8.281  15.404  0.00  0.00    +0.110 C 
ATOM     33  C   UNL     1      -3.440   9.387  14.876  0.00  0.00    +0.143 C 
ATOM     34  C   UNL     1      -4.295   9.966  16.004  0.00  0.00    +0.133 C 
BRANCH  34  35
ATOM     35  N   UNL     1      -5.245  10.957  15.473  0.00  0.00    -0.308 N 
ATOM     36  H   UNL     1      -6.019  10.618  14.920  0.00  0.00    +0.149 HD
ATOM     37  C   UNL     1      -5.150  12.274  15.675  0.00  0.00    +0.210 C 
ATOM     38  C   UNL     1      -3.944  12.760  16.500  0.00  0.00    +0.109 C 
ATOM     39  O   UNL     1      -5.970  13.079  15.231  0.00  0.00    -0.276 OA
ENDBRANCH  34  35
BRANCH  31  40
ATOM     40  C   UNL     1      -4.110   6.344  15.219  0.00  0.00    +0.414 C 
ATOM     41  O   UNL     1      -3.834   6.327  14.021  0.00  0.00    -0.240 OA
ATOM     42  O   UNL     1      -5.054   5.668  15.630  0.00  0.00    -0.240 OA
ENDBRANCH  31  40
BRANCH  33  43
ATOM     43  O   UNL     1      -2.667  10.433  14.286  0.00  0.00    -0.390 OA
ATOM     44  H   UNL     1      -3.237  11.180  14.087  0.00  0.00    +0.210 HD
ENDBRANCH  33  43
BRANCH  31  45
ATOM     45  O   UNL     1      -2.320   6.363  16.889  0.00  0.00    -0.343 OA
ATOM     46  C   UNL     1      -0.951   6.488  16.427  0.00  0.00    +0.198 C 
ENDBRANCH  31  45
ENDBRANCH  28  29
BRANCH  28  47
ATOM     47  O   UNL     1      -7.011  10.142  17.387  0.00  0.00    -0.387 OA
ATOM     48  H   UNL     1      -6.628  10.946  17.027  0.00  0.00    +0.210 HD
ENDBRANCH  28  47
ENDBRANCH  25  28
ENDBRANCH   1  25
TORSDOF 16
