REMARK VINA RESULT:    -5.574      2.967      9.639
REMARK INTER + INTRA:         -11.460
REMARK INTER:                  -8.677
REMARK INTRA:                  -2.783
REMARK UNBOUND:                -1.813
REMARK  Name = lig_assembled_40.pdb
REMARK  17 active torsions:
REMARK  status: ('A' for Active; 'I' for Inactive)
REMARK    1  A    between atoms: _2  and  _9
REMARK    2  A    between atoms: _4  and  _19
REMARK    3  A    between atoms: _6  and  _7
REMARK    4  A    between atoms: _6  and  _19
REMARK    5  A    between atoms: _12  and  _13
REMARK    6  A    between atoms: _15  and  _35
REMARK    7  A    between atoms: _17  and  _23
REMARK    8  A    between atoms: _18  and  _22
REMARK    9  A    between atoms: _22  and  _23
REMARK   10  A    between atoms: _25  and  _26
REMARK   11  A    between atoms: _27  and  _28
REMARK   12  A    between atoms: _29  and  _31
REMARK   13  A    between atoms: _31  and  _32
REMARK   14  A    between atoms: _31  and  _33
REMARK   15  A    between atoms: _33  and  _34
REMARK   16  A    between atoms: _33  and  _35
REMARK   17  A    between atoms: _36  and  _38
REMARK                            x       y       z     vdW  Elec       q    Type
REMARK                         _______ _______ _______ _____ _____    ______ ____
ROOT
ATOM      1  C   UNL     1      -6.466   8.701  23.356  0.00  0.00    +0.163 C 
ENDROOT
BRANCH   1   2
ATOM      2  O   UNL     1      -6.260   9.026  24.741  0.00  0.00    -0.388 OA
ATOM      3  H   UNL     1      -6.592   8.312  25.291  0.00  0.00    +0.210 HD
ENDBRANCH   1   2
BRANCH   1   4
ATOM      4  C   UNL     1      -5.485   7.616  22.924  0.00  0.00    +0.141 C 
BRANCH   4   7
ATOM      5  C   UNL     1      -3.559   6.381  23.856  0.00  0.00    +0.401 C 
ATOM      6  O   UNL     1      -3.402   5.681  22.853  0.00  0.00    -0.226 OA
ATOM      7  N   UNL     1      -4.511   7.307  23.978  0.00  0.00    -0.279 N 
ATOM      8  H   UNL     1      -4.566   7.824  24.844  0.00  0.00    +0.152 HD
BRANCH   5   9
ATOM      9  O   UNL     1      -2.680   6.205  24.970  0.00  0.00    -0.444 OA
BRANCH   9  10
ATOM     10  C   UNL     1      -3.446   6.137  26.176  0.00  0.00    +0.292 C 
BRANCH  10  12
ATOM     11  N   UNL     1      -1.690   7.359  27.419  0.00  0.00    -0.131 NA
ATOM     12  C   UNL     1      -3.009   7.180  27.122  0.00  0.00    +0.121 A 
ATOM     13  C   UNL     1      -3.754   8.103  27.817  0.00  0.00    +0.143 A 
ATOM     14  N   UNL     1      -2.835   8.857  28.511  0.00  0.00    -0.220 N 
ATOM     15  N   UNL     1      -1.591   8.372  28.270  0.00  0.00    -0.060 NA
BRANCH  14  16
ATOM     16  C   UNL     1      -3.060   9.995  29.327  0.00  0.00    +0.067 A 
ATOM     17  C   UNL     1      -2.731   9.979  30.687  0.00  0.00    +0.028 A 
ATOM     18  C   UNL     1      -3.022  11.083  31.494  0.00  0.00    +0.005 A 
ATOM     19  C   UNL     1      -3.644  12.214  30.956  0.00  0.00    -0.050 A 
ATOM     20  C   UNL     1      -3.940  12.242  29.588  0.00  0.00    +0.005 A 
ATOM     21  C   UNL     1      -4.001  13.381  31.828  0.00  0.00    +0.044 C 
ATOM     22  C   UNL     1      -3.650  11.142  28.775  0.00  0.00    +0.028 A 
ENDBRANCH  14  16
ENDBRANCH  10  12
ENDBRANCH   9  10
ENDBRANCH   5   9
ENDBRANCH   4   7
ENDBRANCH   1   4
BRANCH   1  23
ATOM     23  C   UNL     1      -6.284   9.943  22.467  0.00  0.00    +0.175 C 
BRANCH  23  24
ATOM     24  C   UNL     1      -5.004  10.718  22.812  0.00  0.00    +0.176 C 
ATOM     25  O   UNL     1      -5.268  11.510  24.004  0.00  0.00    -0.332 OA
ATOM     26  C   UNL     1      -4.120  12.241  24.546  0.00  0.00    +0.277 C 
ATOM     27  C   UNL     1      -3.483  13.135  23.455  0.00  0.00    +0.110 C 
ATOM     28  C   UNL     1      -3.212  12.345  22.157  0.00  0.00    +0.143 C 
ATOM     29  C   UNL     1      -4.473  11.621  21.683  0.00  0.00    +0.133 C 
BRANCH  29  30
ATOM     30  N   UNL     1      -4.181  10.802  20.496  0.00  0.00    -0.308 N 
ATOM     31  H   UNL     1      -3.441  10.117  20.565  0.00  0.00    +0.149 HD
ATOM     32  C   UNL     1      -4.830  10.904  19.333  0.00  0.00    +0.210 C 
ATOM     33  C   UNL     1      -5.935  11.975  19.251  0.00  0.00    +0.109 C 
ATOM     34  O   UNL     1      -4.574  10.195  18.360  0.00  0.00    -0.276 OA
ENDBRANCH  29  30
BRANCH  26  35
ATOM     35  C   UNL     1      -3.060  11.264  25.096  0.00  0.00    +0.414 C 
ATOM     36  O   UNL     1      -3.311  10.063  25.188  0.00  0.00    -0.240 OA
ATOM     37  O   UNL     1      -1.954  11.677  25.448  0.00  0.00    -0.240 OA
ENDBRANCH  26  35
BRANCH  28  38
ATOM     38  O   UNL     1      -2.769  13.236  21.134  0.00  0.00    -0.390 OA
ATOM     39  H   UNL     1      -2.471  12.730  20.374  0.00  0.00    +0.210 HD
ENDBRANCH  28  38
BRANCH  26  40
ATOM     40  O   UNL     1      -4.597  13.096  25.617  0.00  0.00    -0.343 OA
ATOM     41  C   UNL     1      -5.850  13.775  25.346  0.00  0.00    +0.198 C 
ENDBRANCH  26  40
ENDBRANCH  23  24
BRANCH  23  42
ATOM     42  O   UNL     1      -7.433  10.806  22.578  0.00  0.00    -0.387 OA
ATOM     43  H   UNL     1      -7.493  11.146  23.474  0.00  0.00    +0.210 HD
ENDBRANCH  23  42
ENDBRANCH   1  23
TORSDOF 14
