REMARK VINA RESULT:    -5.310      5.040     10.573
REMARK INTER + INTRA:         -12.283
REMARK INTER:                  -9.833
REMARK INTRA:                  -2.450
REMARK UNBOUND:                -3.093
REMARK  Name = lig_assembled_80.pdb
REMARK  16 active torsions:
REMARK  status: ('A' for Active; 'I' for Inactive)
REMARK    1  A    between atoms: _2  and  _10
REMARK    2  A    between atoms: _5  and  _24
REMARK    3  A    between atoms: _7  and  _8
REMARK    4  A    between atoms: _7  and  _24
REMARK    5  A    between atoms: _20  and  _40
REMARK    6  A    between atoms: _22  and  _28
REMARK    7  A    between atoms: _23  and  _27
REMARK    8  A    between atoms: _27  and  _28
REMARK    9  A    between atoms: _30  and  _31
REMARK   10  A    between atoms: _32  and  _33
REMARK   11  A    between atoms: _34  and  _36
REMARK   12  A    between atoms: _36  and  _37
REMARK   13  A    between atoms: _36  and  _38
REMARK   14  A    between atoms: _38  and  _39
REMARK   15  A    between atoms: _38  and  _40
REMARK   16  A    between atoms: _41  and  _43
REMARK                            x       y       z     vdW  Elec       q    Type
REMARK                         _______ _______ _______ _____ _____    ______ ____
ROOT
ATOM      1  C   UNL     1      -7.124   8.666  22.218  0.00  0.00    +0.141 C 
ENDROOT
BRANCH   1   4
ATOM      2  C   UNL     1      -6.437   8.697  19.845  0.00  0.00    +0.401 C 
ATOM      3  O   UNL     1      -6.124   7.505  19.822  0.00  0.00    -0.226 OA
ATOM      4  N   UNL     1      -6.907   9.324  20.924  0.00  0.00    -0.279 N 
ATOM      5  H   UNL     1      -7.127  10.307  20.846  0.00  0.00    +0.152 HD
BRANCH   2   6
ATOM      6  O   UNL     1      -6.291   9.476  18.655  0.00  0.00    -0.444 OA
BRANCH   6   7
ATOM      7  C   UNL     1      -5.023   9.199  18.054  0.00  0.00    +0.292 C 
BRANCH   7   9
ATOM      8  N   UNL     1      -5.748   9.185  15.699  0.00  0.00    -0.131 NA
ATOM      9  C   UNL     1      -4.974   9.740  16.681  0.00  0.00    +0.120 A 
ATOM     10  C   UNL     1      -4.245  10.785  16.157  0.00  0.00    +0.138 A 
ATOM     11  N   UNL     1      -4.579  10.779  14.829  0.00  0.00    -0.239 N 
ATOM     12  N   UNL     1      -5.511   9.837  14.569  0.00  0.00    -0.065 NA
BRANCH  11  13
ATOM     13  C   UNL     1      -4.212  11.722  13.765  0.00  0.00    +0.195 C 
ATOM     14  C   UNL     1      -4.417  13.138  14.285  0.00  0.00    +0.041 C 
ATOM     15  C   UNL     1      -4.339  14.148  13.159  0.00  0.00    +0.039 C 
ATOM     16  C   UNL     1      -2.911  14.520  12.909  0.00  0.00    -0.026 A 
ATOM     17  C   UNL     1      -1.965  13.602  12.447  0.00  0.00    +0.037 A 
ATOM     18  C   UNL     1      -0.676  14.054  12.119  0.00  0.00    +0.023 A 
ATOM     19  C   UNL     1      -0.291  15.372  12.358  0.00  0.00    +0.002 A 
ATOM     20  C   UNL     1      -1.209  16.268  12.887  0.00  0.00    +0.000 A 
ATOM     21  N   UNL     1      -2.151  12.213  12.349  0.00  0.00    -0.284 N 
ATOM     22  H   UNL     1      -1.360  11.705  11.965  0.00  0.00    +0.155 HD
ATOM     23  C   UNL     1      -2.516  15.852  13.136  0.00  0.00    +0.005 A 
ATOM     24  C   UNL     1      -2.863  11.367  13.150  0.00  0.00    +0.242 C 
ATOM     25  O   UNL     1      -2.385  10.231  13.254  0.00  0.00    -0.273 OA
ENDBRANCH  11  13
ENDBRANCH   7   9
ENDBRANCH   6   7
ENDBRANCH   2   6
ENDBRANCH   1   4
BRANCH   1  26
ATOM     26  C   UNL     1      -6.316   9.324  23.333  0.00  0.00    +0.163 C 
BRANCH  26  27
ATOM     27  O   UNL     1      -7.080   9.340  24.550  0.00  0.00    -0.388 OA
ATOM     28  H   UNL     1      -7.973   9.034  24.372  0.00  0.00    +0.210 HD
ENDBRANCH  26  27
BRANCH  26  29
ATOM     29  C   UNL     1      -4.992   8.565  23.524  0.00  0.00    +0.175 C 
BRANCH  29  30
ATOM     30  C   UNL     1      -3.942   9.410  24.259  0.00  0.00    +0.176 C 
ATOM     31  O   UNL     1      -4.302   9.445  25.668  0.00  0.00    -0.332 OA
ATOM     32  C   UNL     1      -3.349  10.125  26.550  0.00  0.00    +0.277 C 
ATOM     33  C   UNL     1      -3.075  11.563  26.044  0.00  0.00    +0.110 C 
ATOM     34  C   UNL     1      -2.718  11.580  24.542  0.00  0.00    +0.143 C 
ATOM     35  C   UNL     1      -3.775  10.843  23.719  0.00  0.00    +0.133 C 
BRANCH  35  36
ATOM     36  N   UNL     1      -3.381  10.791  22.303  0.00  0.00    -0.308 N 
ATOM     37  H   UNL     1      -2.608  10.191  22.050  0.00  0.00    +0.149 HD
ATOM     38  C   UNL     1      -3.977  11.485  21.329  0.00  0.00    +0.210 C 
ATOM     39  C   UNL     1      -5.134  12.410  21.751  0.00  0.00    +0.109 C 
ATOM     40  O   UNL     1      -3.635  11.410  20.149  0.00  0.00    -0.276 OA
ENDBRANCH  35  36
BRANCH  32  41
ATOM     41  C   UNL     1      -2.021   9.343  26.626  0.00  0.00    +0.414 C 
ATOM     42  O   UNL     1      -0.956   9.943  26.768  0.00  0.00    -0.240 OA
ATOM     43  O   UNL     1      -2.014   8.114  26.545  0.00  0.00    -0.240 OA
ENDBRANCH  32  41
BRANCH  34  44
ATOM     44  O   UNL     1      -2.623  12.930  24.086  0.00  0.00    -0.390 OA
ATOM     45  H   UNL     1      -3.458  13.379  24.235  0.00  0.00    +0.210 HD
ENDBRANCH  34  44
BRANCH  32  46
ATOM     46  O   UNL     1      -3.942  10.210  27.871  0.00  0.00    -0.343 OA
ATOM     47  C   UNL     1      -5.105   9.370  28.075  0.00  0.00    +0.198 C 
ENDBRANCH  32  46
ENDBRANCH  29  30
BRANCH  29  48
ATOM     48  O   UNL     1      -4.478   8.133  22.248  0.00  0.00    -0.387 OA
ATOM     49  H   UNL     1      -4.543   8.854  21.617  0.00  0.00    +0.210 HD
ENDBRANCH  29  48
ENDBRANCH  26  29
ENDBRANCH   1  26
TORSDOF 14
