REMARK VINA RESULT:    -4.815      2.376      5.541
REMARK INTER + INTRA:         -11.464
REMARK INTER:                  -8.401
REMARK INTRA:                  -3.063
REMARK UNBOUND:                -2.848
REMARK  Name = lig_assembled_63.pdb
REMARK  17 active torsions:
REMARK  status: ('A' for Active; 'I' for Inactive)
REMARK    1  A    between atoms: _2  and  _11
REMARK    2  A    between atoms: _6  and  _20
REMARK    3  A    between atoms: _7  and  _15
REMARK    4  A    between atoms: _8  and  _9
REMARK    5  A    between atoms: _8  and  _20
REMARK    6  A    between atoms: _16  and  _36
REMARK    7  A    between atoms: _18  and  _24
REMARK    8  A    between atoms: _19  and  _23
REMARK    9  A    between atoms: _23  and  _24
REMARK   10  A    between atoms: _26  and  _27
REMARK   11  A    between atoms: _28  and  _29
REMARK   12  A    between atoms: _30  and  _32
REMARK   13  A    between atoms: _32  and  _33
REMARK   14  A    between atoms: _32  and  _34
REMARK   15  A    between atoms: _34  and  _35
REMARK   16  A    between atoms: _34  and  _36
REMARK   17  A    between atoms: _37  and  _39
REMARK                            x       y       z     vdW  Elec       q    Type
REMARK                         _______ _______ _______ _____ _____    ______ ____
ROOT
ATOM      1  C   UNL     1      -2.181   9.574  27.158  0.00  0.00    +0.163 C 
ENDROOT
BRANCH   1   2
ATOM      2  O   UNL     1      -1.033   9.649  26.298  0.00  0.00    -0.388 OA
ATOM      3  H   UNL     1      -0.896   8.801  25.870  0.00  0.00    +0.210 HD
ENDBRANCH   1   2
BRANCH   1   4
ATOM      4  C   UNL     1      -1.838   8.787  28.419  0.00  0.00    +0.141 C 
BRANCH   4   7
ATOM      5  C   UNL     1      -3.153   8.906  30.508  0.00  0.00    +0.401 C 
ATOM      6  O   UNL     1      -3.625   7.773  30.386  0.00  0.00    -0.226 OA
ATOM      7  N   UNL     1      -2.314   9.462  29.632  0.00  0.00    -0.279 N 
ATOM      8  H   UNL     1      -1.988  10.401  29.814  0.00  0.00    +0.152 HD
BRANCH   5   9
ATOM      9  O   UNL     1      -3.515   9.691  31.647  0.00  0.00    -0.444 OA
BRANCH   9  10
ATOM     10  C   UNL     1      -2.485  10.646  31.916  0.00  0.00    +0.292 C 
BRANCH  10  12
ATOM     11  N   UNL     1      -4.180  11.971  33.132  0.00  0.00    -0.131 NA
ATOM     12  C   UNL     1      -3.073  11.932  32.335  0.00  0.00    +0.121 A 
ATOM     13  C   UNL     1      -2.692  13.219  32.038  0.00  0.00    +0.145 A 
ATOM     14  N   UNL     1      -3.632  14.020  32.653  0.00  0.00    -0.200 N 
ATOM     15  N   UNL     1      -4.507  13.241  33.326  0.00  0.00    -0.059 NA
BRANCH  14  16
ATOM     16  C   UNL     1      -3.727  15.441  32.560  0.00  0.00    +0.173 A 
ATOM     17  C   UNL     1      -4.496  16.077  31.583  0.00  0.00    +0.096 A 
ATOM     18  C   UNL     1      -4.440  17.480  31.521  0.00  0.00    +0.024 A 
ATOM     19  C   UNL     1      -3.662  18.198  32.425  0.00  0.00    +0.021 A 
ATOM     20  C   UNL     1      -2.964  17.491  33.383  0.00  0.00    +0.113 A 
ATOM     21  N   UNL     1      -2.975  16.144  33.467  0.00  0.00    -0.235 NA
BRANCH  17  22
ATOM     22  C   UNL     1      -5.359  15.422  30.645  0.00  0.00    +0.103 C 
ATOM     23  N   UNL     1      -6.032  14.799  29.933  0.00  0.00    -0.191 NA
ENDBRANCH  17  22
ENDBRANCH  14  16
ENDBRANCH  10  12
ENDBRANCH   9  10
ENDBRANCH   5   9
ENDBRANCH   4   7
ENDBRANCH   1   4
BRANCH   1  24
ATOM     24  C   UNL     1      -3.364   8.903  26.439  0.00  0.00    +0.175 C 
BRANCH  24  25
ATOM     25  C   UNL     1      -4.108   9.878  25.515  0.00  0.00    +0.176 C 
ATOM     26  O   UNL     1      -3.296  10.073  24.324  0.00  0.00    -0.332 OA
ATOM     27  C   UNL     1      -3.900  10.899  23.274  0.00  0.00    +0.277 C 
ATOM     28  C   UNL     1      -4.329  12.272  23.845  0.00  0.00    +0.110 C 
ATOM     29  C   UNL     1      -5.168  12.118  25.131  0.00  0.00    +0.143 C 
ATOM     30  C   UNL     1      -4.447  11.238  26.154  0.00  0.00    +0.133 C 
BRANCH  30  31
ATOM     31  N   UNL     1      -5.293  11.027  27.339  0.00  0.00    -0.308 N 
ATOM     32  H   UNL     1      -6.127  10.468  27.229  0.00  0.00    +0.149 HD
ATOM     33  C   UNL     1      -5.031  11.526  28.549  0.00  0.00    +0.210 C 
ATOM     34  C   UNL     1      -3.766  12.396  28.678  0.00  0.00    +0.109 C 
ATOM     35  O   UNL     1      -5.750  11.321  29.528  0.00  0.00    -0.276 OA
ENDBRANCH  30  31
BRANCH  27  36
ATOM     36  C   UNL     1      -5.125  10.191  22.658  0.00  0.00    +0.414 C 
ATOM     37  O   UNL     1      -6.178  10.806  22.492  0.00  0.00    -0.240 OA
ATOM     38  O   UNL     1      -5.061   9.006  22.328  0.00  0.00    -0.240 OA
ENDBRANCH  27  36
BRANCH  27  39
ATOM     39  O   UNL     1      -2.899  11.122  22.248  0.00  0.00    -0.343 OA
ATOM     40  C   UNL     1      -3.172  12.234  21.358  0.00  0.00    +0.198 C 
ENDBRANCH  27  39
BRANCH  29  41
ATOM     41  O   UNL     1      -5.412  13.403  25.705  0.00  0.00    -0.390 OA
ATOM     42  H   UNL     1      -6.057  13.321  26.411  0.00  0.00    +0.210 HD
ENDBRANCH  29  41
ENDBRANCH  24  25
BRANCH  24  43
ATOM     43  O   UNL     1      -4.276   8.338  27.402  0.00  0.00    -0.387 OA
ATOM     44  H   UNL     1      -4.200   8.815  28.232  0.00  0.00    +0.210 HD
ENDBRANCH  24  43
ENDBRANCH   1  24
TORSDOF 15
