REMARK VINA RESULT:    -5.291      2.758      5.436
REMARK INTER + INTRA:         -12.057
REMARK INTER:                  -8.872
REMARK INTRA:                  -3.185
REMARK UNBOUND:                -2.589
REMARK  Name = lig_assembled_82.pdb
REMARK  19 active torsions:
REMARK  status: ('A' for Active; 'I' for Inactive)
REMARK    1  A    between atoms: _2  and  _9
REMARK    2  A    between atoms: _4  and  _22
REMARK    3  A    between atoms: _5  and  _16
REMARK    4  A    between atoms: _6  and  _7
REMARK    5  A    between atoms: _6  and  _22
REMARK    6  A    between atoms: _9  and  _10
REMARK    7  A    between atoms: _16  and  _17
REMARK    8  A    between atoms: _18  and  _38
REMARK    9  A    between atoms: _20  and  _26
REMARK   10  A    between atoms: _21  and  _25
REMARK   11  A    between atoms: _25  and  _26
REMARK   12  A    between atoms: _28  and  _29
REMARK   13  A    between atoms: _30  and  _31
REMARK   14  A    between atoms: _32  and  _34
REMARK   15  A    between atoms: _34  and  _35
REMARK   16  A    between atoms: _34  and  _36
REMARK   17  A    between atoms: _36  and  _37
REMARK   18  A    between atoms: _36  and  _38
REMARK   19  A    between atoms: _39  and  _41
REMARK                            x       y       z     vdW  Elec       q    Type
REMARK                         _______ _______ _______ _____ _____    ______ ____
ROOT
ATOM      1  C   UNL     1      -4.090  13.212  29.964  0.00  0.00    +0.163 C 
ENDROOT
BRANCH   1   2
ATOM      2  O   UNL     1      -2.870  12.982  30.687  0.00  0.00    -0.388 OA
ATOM      3  H   UNL     1      -2.914  12.130  31.128  0.00  0.00    +0.210 HD
ENDBRANCH   1   2
BRANCH   1   4
ATOM      4  C   UNL     1      -5.046  14.049  30.807  0.00  0.00    +0.141 C 
BRANCH   4   7
ATOM      5  C   UNL     1      -6.353  15.863  29.755  0.00  0.00    +0.401 C 
ATOM      6  O   UNL     1      -5.614  16.761  30.165  0.00  0.00    -0.226 OA
ATOM      7  N   UNL     1      -6.166  14.568  30.012  0.00  0.00    -0.279 N 
ATOM      8  H   UNL     1      -6.833  13.907  29.639  0.00  0.00    +0.152 HD
BRANCH   5   9
ATOM      9  O   UNL     1      -7.488  16.208  28.956  0.00  0.00    -0.444 OA
BRANCH   9  10
ATOM     10  C   UNL     1      -7.048  16.678  27.679  0.00  0.00    +0.292 C 
BRANCH  10  12
ATOM     11  N   UNL     1      -7.027  14.298  27.001  0.00  0.00    -0.131 NA
ATOM     12  C   UNL     1      -7.164  15.624  26.666  0.00  0.00    +0.120 A 
ATOM     13  C   UNL     1      -7.397  15.710  25.305  0.00  0.00    +0.137 A 
ATOM     14  N   UNL     1      -7.260  14.425  24.862  0.00  0.00    -0.247 N 
ATOM     15  N   UNL     1      -7.127  13.573  25.896  0.00  0.00    -0.065 NA
BRANCH  14  16
ATOM     16  C   UNL     1      -7.152  13.943  23.482  0.00  0.00    +0.176 C 
BRANCH  16  17
ATOM     17  C   UNL     1      -5.754  14.072  22.929  0.00  0.00    -0.049 C 
ATOM     18  C   UNL     1      -4.788  12.966  23.214  0.00  0.00    +0.023 C 
ATOM     19  C   UNL     1      -3.731  12.572  22.087  0.00  0.00    -0.025 C 
ATOM     20  C   UNL     1      -3.834  12.589  20.556  0.00  0.00    +0.012 C 
ATOM     21  C   UNL     1      -3.029  13.921  22.584  0.00  0.00    -0.000 C 
ATOM     22  C   UNL     1      -3.719  15.234  22.094  0.00  0.00    +0.031 C 
ATOM     23  C   UNL     1      -3.298  11.134  22.469  0.00  0.00    +0.012 C 
ATOM     24  C   UNL     1      -3.545  13.550  24.000  0.00  0.00    +0.012 C 
ATOM     25  C   UNL     1      -5.216  15.162  22.350  0.00  0.00    -0.025 C 
ENDBRANCH  16  17
ENDBRANCH  14  16
ENDBRANCH  10  12
ENDBRANCH   9  10
ENDBRANCH   5   9
ENDBRANCH   4   7
ENDBRANCH   1   4
BRANCH   1  26
ATOM     26  C   UNL     1      -4.766  11.882  29.589  0.00  0.00    +0.175 C 
BRANCH  26  27
ATOM     27  C   UNL     1      -3.769  10.872  29.000  0.00  0.00    +0.176 C 
ATOM     28  O   UNL     1      -4.275  10.448  27.704  0.00  0.00    -0.332 OA
ATOM     29  C   UNL     1      -3.396   9.557  26.941  0.00  0.00    +0.277 C 
ATOM     30  C   UNL     1      -3.017   8.317  27.787  0.00  0.00    +0.110 C 
ATOM     31  C   UNL     1      -2.503   8.717  29.186  0.00  0.00    +0.143 C 
ATOM     32  C   UNL     1      -3.493   9.646  29.889  0.00  0.00    +0.133 C 
BRANCH  32  33
ATOM     33  N   UNL     1      -2.953  10.089  31.184  0.00  0.00    -0.308 N 
ATOM     34  H   UNL     1      -2.080  10.598  31.182  0.00  0.00    +0.149 HD
ATOM     35  C   UNL     1      -3.541   9.863  32.362  0.00  0.00    +0.210 C 
ATOM     36  C   UNL     1      -4.857   9.062  32.334  0.00  0.00    +0.109 C 
ATOM     37  O   UNL     1      -3.074  10.259  33.430  0.00  0.00    -0.276 OA
ENDBRANCH  32  33
BRANCH  29  38
ATOM     38  C   UNL     1      -2.113  10.296  26.506  0.00  0.00    +0.414 C 
ATOM     39  O   UNL     1      -2.173  11.457  26.102  0.00  0.00    -0.240 OA
ATOM     40  O   UNL     1      -1.020   9.732  26.558  0.00  0.00    -0.240 OA
ENDBRANCH  29  38
BRANCH  29  41
ATOM     41  O   UNL     1      -4.122   9.107  25.768  0.00  0.00    -0.343 OA
ATOM     42  C   UNL     1      -5.364   9.809  25.510  0.00  0.00    +0.198 C 
ENDBRANCH  29  41
BRANCH  31  43
ATOM     43  O   UNL     1      -2.310   7.546  29.981  0.00  0.00    -0.390 OA
ATOM     44  H   UNL     1      -1.535   7.072  29.671  0.00  0.00    +0.210 HD
ENDBRANCH  31  43
ENDBRANCH  26  27
BRANCH  26  45
ATOM     45  O   UNL     1      -5.843  12.116  28.659  0.00  0.00    -0.387 OA
ATOM     46  H   UNL     1      -5.753  11.525  27.908  0.00  0.00    +0.210 HD
ENDBRANCH  26  45
ENDBRANCH   1  26
TORSDOF 15
