REMARK VINA RESULT:    -4.850      3.264      8.668
REMARK INTER + INTRA:         -11.488
REMARK INTER:                  -9.064
REMARK INTRA:                  -2.424
REMARK UNBOUND:                -3.093
REMARK  Name = lig_assembled_80.pdb
REMARK  16 active torsions:
REMARK  status: ('A' for Active; 'I' for Inactive)
REMARK    1  A    between atoms: _2  and  _10
REMARK    2  A    between atoms: _5  and  _24
REMARK    3  A    between atoms: _7  and  _8
REMARK    4  A    between atoms: _7  and  _24
REMARK    5  A    between atoms: _20  and  _40
REMARK    6  A    between atoms: _22  and  _28
REMARK    7  A    between atoms: _23  and  _27
REMARK    8  A    between atoms: _27  and  _28
REMARK    9  A    between atoms: _30  and  _31
REMARK   10  A    between atoms: _32  and  _33
REMARK   11  A    between atoms: _34  and  _36
REMARK   12  A    between atoms: _36  and  _37
REMARK   13  A    between atoms: _36  and  _38
REMARK   14  A    between atoms: _38  and  _39
REMARK   15  A    between atoms: _38  and  _40
REMARK   16  A    between atoms: _41  and  _43
REMARK                            x       y       z     vdW  Elec       q    Type
REMARK                         _______ _______ _______ _____ _____    ______ ____
ROOT
ATOM      1  C   UNL     1      -3.476   9.820  28.577  0.00  0.00    +0.141 C 
ENDROOT
BRANCH   1   4
ATOM      2  C   UNL     1      -2.239   9.903  26.439  0.00  0.00    +0.401 C 
ATOM      3  O   UNL     1      -1.860   8.731  26.505  0.00  0.00    -0.226 OA
ATOM      4  N   UNL     1      -2.992  10.496  27.366  0.00  0.00    -0.279 N 
ATOM      5  H   UNL     1      -3.244  11.464  27.228  0.00  0.00    +0.152 HD
BRANCH   2   6
ATOM      6  O   UNL     1      -1.856  10.694  25.311  0.00  0.00    -0.444 OA
BRANCH   6   7
ATOM      7  C   UNL     1      -2.712  11.835  25.216  0.00  0.00    +0.292 C 
BRANCH   7   9
ATOM      8  N   UNL     1      -5.065  11.721  24.490  0.00  0.00    -0.131 NA
ATOM      9  C   UNL     1      -3.737  11.624  24.174  0.00  0.00    +0.120 A 
ATOM     10  C   UNL     1      -3.605  11.331  22.835  0.00  0.00    +0.138 A 
ATOM     11  N   UNL     1      -4.897  11.205  22.400  0.00  0.00    -0.239 N 
ATOM     12  N   UNL     1      -5.770  11.478  23.394  0.00  0.00    -0.065 NA
BRANCH  11  13
ATOM     13  C   UNL     1      -5.415  11.005  21.041  0.00  0.00    +0.195 C 
ATOM     14  C   UNL     1      -4.661  11.932  20.097  0.00  0.00    +0.041 C 
ATOM     15  C   UNL     1      -5.333  11.992  18.741  0.00  0.00    +0.039 C 
ATOM     16  C   UNL     1      -4.863  10.854  17.890  0.00  0.00    -0.026 A 
ATOM     17  C   UNL     1      -5.127   9.520  18.207  0.00  0.00    +0.037 A 
ATOM     18  C   UNL     1      -4.760   8.514  17.297  0.00  0.00    +0.023 A 
ATOM     19  C   UNL     1      -4.035   8.814  16.145  0.00  0.00    +0.002 A 
ATOM     20  C   UNL     1      -3.707  10.133  15.866  0.00  0.00    +0.000 A 
ATOM     21  N   UNL     1      -5.668   9.057  19.419  0.00  0.00    -0.284 N 
ATOM     22  H   UNL     1      -5.815   8.053  19.461  0.00  0.00    +0.155 HD
ATOM     23  C   UNL     1      -4.140  11.147  16.718  0.00  0.00    +0.005 A 
ATOM     24  C   UNL     1      -5.494   9.524  20.690  0.00  0.00    +0.242 C 
ATOM     25  O   UNL     1      -5.517   8.652  21.567  0.00  0.00    -0.273 OA
ENDBRANCH  11  13
ENDBRANCH   7   9
ENDBRANCH   6   7
ENDBRANCH   2   6
ENDBRANCH   1   4
BRANCH   1  26
ATOM     26  C   UNL     1      -4.050  10.807  29.588  0.00  0.00    +0.163 C 
BRANCH  26  27
ATOM     27  O   UNL     1      -2.987  11.552  30.205  0.00  0.00    -0.388 OA
ATOM     28  H   UNL     1      -2.994  12.454  29.874  0.00  0.00    +0.210 HD
ENDBRANCH  26  27
BRANCH  26  29
ATOM     29  C   UNL     1      -5.043  11.746  28.882  0.00  0.00    +0.175 C 
BRANCH  29  30
ATOM     30  C   UNL     1      -5.052  13.150  29.504  0.00  0.00    +0.176 C 
ATOM     31  O   UNL     1      -4.988  13.000  30.949  0.00  0.00    -0.332 OA
ATOM     32  C   UNL     1      -4.881  14.247  31.713  0.00  0.00    +0.277 C 
ATOM     33  C   UNL     1      -6.032  15.212  31.337  0.00  0.00    +0.110 C 
ATOM     34  C   UNL     1      -6.160  15.379  29.809  0.00  0.00    +0.143 C 
ATOM     35  C   UNL     1      -6.262  14.020  29.115  0.00  0.00    +0.133 C 
BRANCH  35  36
ATOM     36  N   UNL     1      -6.295  14.189  27.653  0.00  0.00    -0.308 N 
ATOM     37  H   UNL     1      -5.456  14.517  27.197  0.00  0.00    +0.149 HD
ATOM     38  C   UNL     1      -7.362  13.937  26.891  0.00  0.00    +0.210 C 
ATOM     39  C   UNL     1      -8.634  13.463  27.619  0.00  0.00    +0.109 C 
ATOM     40  O   UNL     1      -7.357  14.074  25.667  0.00  0.00    -0.276 OA
ENDBRANCH  35  36
BRANCH  32  41
ATOM     41  C   UNL     1      -3.525  14.934  31.449  0.00  0.00    +0.414 C 
ATOM     42  O   UNL     1      -2.574  14.285  31.015  0.00  0.00    -0.240 OA
ATOM     43  O   UNL     1      -3.382  16.138  31.669  0.00  0.00    -0.240 OA
ENDBRANCH  32  41
BRANCH  34  44
ATOM     44  O   UNL     1      -7.322  16.151  29.504  0.00  0.00    -0.390 OA
ATOM     45  H   UNL     1      -7.964  16.058  30.211  0.00  0.00    +0.210 HD
ENDBRANCH  34  44
BRANCH  32  46
ATOM     46  O   UNL     1      -4.998  13.922  33.122  0.00  0.00    -0.343 OA
ATOM     47  C   UNL     1      -4.857  12.514  33.439  0.00  0.00    +0.198 C 
ENDBRANCH  32  46
ENDBRANCH  29  30
BRANCH  29  48
ATOM     48  O   UNL     1      -6.369  11.181  28.912  0.00  0.00    -0.387 OA
ATOM     49  H   UNL     1      -6.659  11.093  29.823  0.00  0.00    +0.210 HD
ENDBRANCH  29  48
ENDBRANCH  26  29
ENDBRANCH   1  26
TORSDOF 14
