REMARK VINA RESULT:    -4.940      1.837      4.161
REMARK INTER + INTRA:         -10.561
REMARK INTER:                  -7.704
REMARK INTRA:                  -2.857
REMARK UNBOUND:                -2.010
REMARK  Name = lig_assembled_49.pdb
REMARK  16 active torsions:
REMARK  status: ('A' for Active; 'I' for Inactive)
REMARK    1  A    between atoms: _2  and  _9
REMARK    2  A    between atoms: _4  and  _17
REMARK    3  A    between atoms: _6  and  _7
REMARK    4  A    between atoms: _6  and  _17
REMARK    5  A    between atoms: _13  and  _33
REMARK    6  A    between atoms: _15  and  _21
REMARK    7  A    between atoms: _16  and  _20
REMARK    8  A    between atoms: _20  and  _21
REMARK    9  A    between atoms: _23  and  _24
REMARK   10  A    between atoms: _25  and  _26
REMARK   11  A    between atoms: _27  and  _29
REMARK   12  A    between atoms: _29  and  _30
REMARK   13  A    between atoms: _29  and  _31
REMARK   14  A    between atoms: _31  and  _32
REMARK   15  A    between atoms: _31  and  _33
REMARK   16  A    between atoms: _34  and  _36
REMARK                            x       y       z     vdW  Elec       q    Type
REMARK                         _______ _______ _______ _____ _____    ______ ____
ROOT
ATOM      1  C   UNL     1      -3.515  11.980  30.612  0.00  0.00    +0.175 C 
ENDROOT
BRANCH   1   2
ATOM      2  C   UNL     1      -5.021  12.099  30.335  0.00  0.00    +0.176 C 
ATOM      3  O   UNL     1      -5.274  11.568  29.005  0.00  0.00    -0.332 OA
ATOM      4  C   UNL     1      -6.683  11.502  28.606  0.00  0.00    +0.277 C 
ATOM      5  C   UNL     1      -7.352  12.891  28.751  0.00  0.00    +0.110 C 
ATOM      6  C   UNL     1      -7.084  13.510  30.139  0.00  0.00    +0.143 C 
ATOM      7  C   UNL     1      -5.588  13.526  30.452  0.00  0.00    +0.133 C 
BRANCH   7   8
ATOM      8  N   UNL     1      -5.351  14.038  31.811  0.00  0.00    -0.308 N 
ATOM      9  H   UNL     1      -5.777  13.543  32.583  0.00  0.00    +0.149 HD
ATOM     10  C   UNL     1      -4.612  15.114  32.093  0.00  0.00    +0.210 C 
ATOM     11  C   UNL     1      -3.999  15.862  30.894  0.00  0.00    +0.109 C 
ATOM     12  O   UNL     1      -4.419  15.512  33.242  0.00  0.00    -0.276 OA
ENDBRANCH   7   8
BRANCH   4  13
ATOM     13  C   UNL     1      -7.447  10.470  29.463  0.00  0.00    +0.414 C 
ATOM     14  O   UNL     1      -6.892   9.433  29.824  0.00  0.00    -0.240 OA
ATOM     15  O   UNL     1      -8.615  10.675  29.793  0.00  0.00    -0.240 OA
ENDBRANCH   4  13
BRANCH   6  16
ATOM     16  O   UNL     1      -7.587  14.846  30.175  0.00  0.00    -0.390 OA
ATOM     17  H   UNL     1      -8.136  15.003  29.403  0.00  0.00    +0.210 HD
ENDBRANCH   6  16
BRANCH   4  18
ATOM     18  O   UNL     1      -6.737  11.111  27.210  0.00  0.00    -0.343 OA
ATOM     19  C   UNL     1      -6.662  12.208  26.264  0.00  0.00    +0.198 C 
ENDBRANCH   4  18
ENDBRANCH   1   2
BRANCH   1  20
ATOM     20  O   UNL     1      -2.856  11.333  29.505  0.00  0.00    -0.387 OA
ATOM     21  H   UNL     1      -1.908  11.465  29.576  0.00  0.00    +0.210 HD
ENDBRANCH   1  20
BRANCH   1  22
ATOM     22  C   UNL     1      -3.225  11.222  31.919  0.00  0.00    +0.163 C 
BRANCH  22  23
ATOM     23  O   UNL     1      -1.833  11.310  32.265  0.00  0.00    -0.388 OA
ATOM     24  H   UNL     1      -1.705  10.985  33.160  0.00  0.00    +0.210 HD
ENDBRANCH  22  23
BRANCH  22  25
ATOM     25  C   UNL     1      -3.633   9.761  31.761  0.00  0.00    +0.141 C 
BRANCH  25  28
ATOM     26  C   UNL     1      -2.880   7.805  30.452  0.00  0.00    +0.401 C 
ATOM     27  O   UNL     1      -3.964   7.221  30.524  0.00  0.00    -0.226 OA
ATOM     28  N   UNL     1      -2.635   8.993  31.006  0.00  0.00    -0.279 N 
ATOM     29  H   UNL     1      -1.710   9.386  30.901  0.00  0.00    +0.152 HD
BRANCH  26  30
ATOM     30  O   UNL     1      -1.805   7.187  29.740  0.00  0.00    -0.444 OA
BRANCH  30  31
ATOM     31  C   UNL     1      -2.207   6.936  28.391  0.00  0.00    +0.292 C 
BRANCH  31  33
ATOM     32  N   UNL     1      -1.282   9.133  27.732  0.00  0.00    -0.131 NA
ATOM     33  C   UNL     1      -2.278   8.199  27.632  0.00  0.00    +0.120 A 
ATOM     34  C   UNL     1      -3.247   8.663  26.771  0.00  0.00    +0.137 A 
ATOM     35  N   UNL     1      -2.784   9.887  26.385  0.00  0.00    -0.248 N 
ATOM     36  N   UNL     1      -1.602  10.163  26.962  0.00  0.00    -0.065 NA
BRANCH  35  37
ATOM     37  C   UNL     1      -3.422  10.833  25.500  0.00  0.00    +0.109 C 
ATOM     38  C   UNL     1      -2.770  12.217  25.501  0.00  0.00    +0.027 C 
ATOM     39  C   UNL     1      -3.309  12.846  24.227  0.00  0.00    +0.002 C 
ATOM     40  C   UNL     1      -3.299  11.707  23.216  0.00  0.00    +0.002 C 
ATOM     41  C   UNL     1      -3.438  10.414  24.024  0.00  0.00    +0.027 C 
ENDBRANCH  35  37
ENDBRANCH  31  33
ENDBRANCH  30  31
ENDBRANCH  26  30
ENDBRANCH  25  28
ENDBRANCH  22  25
ENDBRANCH   1  22
TORSDOF 14
