REMARK VINA RESULT:    -4.708      2.204      4.462
REMARK INTER + INTRA:         -10.529
REMARK INTER:                  -7.826
REMARK INTRA:                  -2.703
REMARK UNBOUND:                -2.381
REMARK  Name = lig_assembled_7.pdb
REMARK  19 active torsions:
REMARK  status: ('A' for Active; 'I' for Inactive)
REMARK    1  A    between atoms: _2  and  _9
REMARK    2  A    between atoms: _4  and  _21
REMARK    3  A    between atoms: _5  and  _16
REMARK    4  A    between atoms: _6  and  _7
REMARK    5  A    between atoms: _6  and  _21
REMARK    6  A    between atoms: _10  and  _11
REMARK    7  A    between atoms: _13  and  _14
REMARK    8  A    between atoms: _17  and  _37
REMARK    9  A    between atoms: _19  and  _25
REMARK   10  A    between atoms: _20  and  _24
REMARK   11  A    between atoms: _24  and  _25
REMARK   12  A    between atoms: _27  and  _28
REMARK   13  A    between atoms: _29  and  _30
REMARK   14  A    between atoms: _31  and  _33
REMARK   15  A    between atoms: _33  and  _34
REMARK   16  A    between atoms: _33  and  _35
REMARK   17  A    between atoms: _35  and  _36
REMARK   18  A    between atoms: _35  and  _37
REMARK   19  A    between atoms: _38  and  _40
REMARK                            x       y       z     vdW  Elec       q    Type
REMARK                         _______ _______ _______ _____ _____    ______ ____
ROOT
ATOM      1  C   UNL     1      -7.054  12.386  23.673  0.00  0.00    +0.163 C 
ENDROOT
BRANCH   1   2
ATOM      2  O   UNL     1      -7.144  12.892  25.014  0.00  0.00    -0.388 OA
ATOM      3  H   UNL     1      -6.937  13.830  25.017  0.00  0.00    +0.210 HD
ENDBRANCH   1   2
BRANCH   1   4
ATOM      4  C   UNL     1      -8.433  12.388  23.021  0.00  0.00    +0.141 C 
BRANCH   4   7
ATOM      5  C   UNL     1      -8.081  13.324  20.761  0.00  0.00    +0.401 C 
ATOM      6  O   UNL     1      -7.890  14.474  21.165  0.00  0.00    -0.226 OA
ATOM      7  N   UNL     1      -8.347  12.289  21.558  0.00  0.00    -0.279 N 
ATOM      8  H   UNL     1      -8.498  11.385  21.132  0.00  0.00    +0.152 HD
BRANCH   5   9
ATOM      9  O   UNL     1      -8.022  13.063  19.357  0.00  0.00    -0.444 OA
BRANCH   9  10
ATOM     10  C   UNL     1      -8.237  11.669  19.121  0.00  0.00    +0.292 C 
BRANCH  10  12
ATOM     11  N   UNL     1      -5.971  10.793  19.542  0.00  0.00    -0.131 NA
ATOM     12  C   UNL     1      -6.988  11.028  18.669  0.00  0.00    +0.121 A 
ATOM     13  C   UNL     1      -6.617  10.571  17.420  0.00  0.00    +0.143 A 
ATOM     14  N   UNL     1      -5.328  10.102  17.570  0.00  0.00    -0.219 N 
ATOM     15  N   UNL     1      -4.987  10.209  18.878  0.00  0.00    -0.060 NA
BRANCH  14  16
ATOM     16  C   UNL     1      -4.431   9.565  16.589  0.00  0.00    +0.073 A 
ATOM     17  C   UNL     1      -4.259   8.150  16.499  0.00  0.00    -0.024 A 
ATOM     18  C   UNL     1      -3.378   7.613  15.536  0.00  0.00    +0.008 A 
ATOM     19  C   UNL     1      -2.673   8.430  14.656  0.00  0.00    -0.050 A 
ATOM     20  C   UNL     1      -1.748   7.826  13.643  0.00  0.00    +0.044 C 
ATOM     21  C   UNL     1      -2.847   9.809  14.746  0.00  0.00    +0.008 A 
ATOM     22  C   UNL     1      -5.003   7.139  17.344  0.00  0.00    +0.046 C 
ATOM     23  C   UNL     1      -3.696  10.401  15.710  0.00  0.00    -0.024 A 
ATOM     24  C   UNL     1      -3.642  11.908  15.720  0.00  0.00    +0.046 C 
ENDBRANCH  14  16
ENDBRANCH  10  12
ENDBRANCH   9  10
ENDBRANCH   5   9
ENDBRANCH   4   7
ENDBRANCH   1   4
BRANCH   1  25
ATOM     25  C   UNL     1      -6.483  10.957  23.661  0.00  0.00    +0.175 C 
BRANCH  25  26
ATOM     26  C   UNL     1      -5.152  10.861  24.421  0.00  0.00    +0.176 C 
ATOM     27  O   UNL     1      -5.445  10.916  25.844  0.00  0.00    -0.332 OA
ATOM     28  C   UNL     1      -4.296  10.731  26.736  0.00  0.00    +0.277 C 
ATOM     29  C   UNL     1      -3.176  11.744  26.392  0.00  0.00    +0.110 C 
ATOM     30  C   UNL     1      -2.852  11.745  24.884  0.00  0.00    +0.143 C 
ATOM     31  C   UNL     1      -4.118  11.941  24.050  0.00  0.00    +0.133 C 
BRANCH  31  32
ATOM     32  N   UNL     1      -3.809  11.853  22.614  0.00  0.00    -0.308 N 
ATOM     33  H   UNL     1      -3.590  10.943  22.234  0.00  0.00    +0.149 HD
ATOM     34  C   UNL     1      -3.800  12.897  21.781  0.00  0.00    +0.210 C 
ATOM     35  C   UNL     1      -4.113  14.273  22.396  0.00  0.00    +0.109 C 
ATOM     36  O   UNL     1      -3.552  12.791  20.579  0.00  0.00    -0.276 OA
ENDBRANCH  31  32
BRANCH  28  37
ATOM     37  C   UNL     1      -3.743   9.295  26.625  0.00  0.00    +0.414 C 
ATOM     38  O   UNL     1      -2.529   9.094  26.641  0.00  0.00    -0.240 OA
ATOM     39  O   UNL     1      -4.511   8.337  26.520  0.00  0.00    -0.240 OA
ENDBRANCH  28  37
BRANCH  30  40
ATOM     40  O   UNL     1      -1.928  12.793  24.590  0.00  0.00    -0.390 OA
ATOM     41  H   UNL     1      -1.425  12.567  23.804  0.00  0.00    +0.210 HD
ENDBRANCH  30  40
BRANCH  28  42
ATOM     42  O   UNL     1      -4.737  10.981  28.095  0.00  0.00    -0.343 OA
ATOM     43  C   UNL     1      -5.985  11.712  28.209  0.00  0.00    +0.198 C 
ENDBRANCH  28  42
ENDBRANCH  25  26
BRANCH  25  44
ATOM     44  O   UNL     1      -6.314  10.501  22.304  0.00  0.00    -0.387 OA
ATOM     45  H   UNL     1      -6.129   9.559  22.303  0.00  0.00    +0.210 HD
ENDBRANCH  25  44
ENDBRANCH   1  25
TORSDOF 14
