REMARK VINA RESULT:    -4.620      8.387     11.692
REMARK INTER + INTRA:         -10.763
REMARK INTER:                  -7.924
REMARK INTRA:                  -2.839
REMARK UNBOUND:                -2.363
REMARK  Name = lig_assembled_59.pdb
REMARK  18 active torsions:
REMARK  status: ('A' for Active; 'I' for Inactive)
REMARK    1  A    between atoms: _2  and  _10
REMARK    2  A    between atoms: _5  and  _20
REMARK    3  A    between atoms: _7  and  _8
REMARK    4  A    between atoms: _7  and  _20
REMARK    5  A    between atoms: _13  and  _14
REMARK    6  A    between atoms: _14  and  _15
REMARK    7  A    between atoms: _16  and  _36
REMARK    8  A    between atoms: _18  and  _24
REMARK    9  A    between atoms: _19  and  _23
REMARK   10  A    between atoms: _23  and  _24
REMARK   11  A    between atoms: _26  and  _27
REMARK   12  A    between atoms: _28  and  _29
REMARK   13  A    between atoms: _30  and  _32
REMARK   14  A    between atoms: _32  and  _33
REMARK   15  A    between atoms: _32  and  _34
REMARK   16  A    between atoms: _34  and  _35
REMARK   17  A    between atoms: _34  and  _36
REMARK   18  A    between atoms: _37  and  _39
REMARK                            x       y       z     vdW  Elec       q    Type
REMARK                         _______ _______ _______ _____ _____    ______ ____
ROOT
ATOM      1  C   UNL     1      -2.874  10.185  13.790  0.00  0.00    +0.163 C 
ENDROOT
BRANCH   1   2
ATOM      2  O   UNL     1      -2.062  10.276  12.608  0.00  0.00    -0.388 OA
ATOM      3  H   UNL     1      -1.475   9.517  12.563  0.00  0.00    +0.210 HD
ENDBRANCH   1   2
BRANCH   1   4
ATOM      4  C   UNL     1      -3.769  11.427  13.940  0.00  0.00    +0.175 C 
BRANCH   4   5
ATOM      5  C   UNL     1      -3.429  12.512  12.907  0.00  0.00    +0.176 C 
ATOM      6  O   UNL     1      -2.169  13.124  13.300  0.00  0.00    -0.332 OA
ATOM      7  C   UNL     1      -1.629  14.118  12.367  0.00  0.00    +0.277 C 
ATOM      8  C   UNL     1      -2.680  15.219  12.082  0.00  0.00    +0.110 C 
ATOM      9  C   UNL     1      -4.045  14.616  11.691  0.00  0.00    +0.143 C 
ATOM     10  C   UNL     1      -4.511  13.594  12.729  0.00  0.00    +0.133 C 
BRANCH  10  11
ATOM     11  N   UNL     1      -5.770  12.963  12.302  0.00  0.00    -0.308 N 
ATOM     12  H   UNL     1      -5.758  12.412  11.455  0.00  0.00    +0.149 HD
ATOM     13  C   UNL     1      -6.927  13.072  12.961  0.00  0.00    +0.210 C 
ATOM     14  C   UNL     1      -6.918  13.940  14.233  0.00  0.00    +0.109 C 
ATOM     15  O   UNL     1      -7.963  12.520  12.587  0.00  0.00    -0.276 OA
ENDBRANCH  10  11
BRANCH   7  16
ATOM     16  C   UNL     1      -1.209  13.451  11.041  0.00  0.00    +0.414 C 
ATOM     17  O   UNL     1      -1.366  14.041   9.973  0.00  0.00    -0.240 OA
ATOM     18  O   UNL     1      -0.712  12.324  11.039  0.00  0.00    -0.240 OA
ENDBRANCH   7  16
BRANCH   7  19
ATOM     19  O   UNL     1      -0.475  14.737  12.990  0.00  0.00    -0.343 OA
ATOM     20  C   UNL     1      -0.222  16.106  12.586  0.00  0.00    +0.198 C 
ENDBRANCH   7  19
BRANCH   9  21
ATOM     21  O   UNL     1      -5.019  15.656  11.586  0.00  0.00    -0.390 OA
ATOM     22  H   UNL     1      -5.867  15.278  11.346  0.00  0.00    +0.210 HD
ENDBRANCH   9  21
ENDBRANCH   4   5
BRANCH   4  23
ATOM     23  O   UNL     1      -3.659  11.960  15.275  0.00  0.00    -0.387 OA
ATOM     24  H   UNL     1      -4.433  11.708  15.785  0.00  0.00    +0.210 HD
ENDBRANCH   4  23
ENDBRANCH   1   4
BRANCH   1  25
ATOM     25  C   UNL     1      -3.745   8.934  13.730  0.00  0.00    +0.141 C 
BRANCH  25  28
ATOM     26  C   UNL     1      -5.977   8.771  14.777  0.00  0.00    +0.401 C 
ATOM     27  O   UNL     1      -6.585   8.787  13.704  0.00  0.00    -0.226 OA
ATOM     28  N   UNL     1      -4.650   8.842  14.883  0.00  0.00    -0.279 N 
ATOM     29  H   UNL     1      -4.244   8.831  15.808  0.00  0.00    +0.152 HD
BRANCH  26  30
ATOM     30  O   UNL     1      -6.720   8.675  15.995  0.00  0.00    -0.444 OA
BRANCH  30  31
ATOM     31  C   UNL     1      -7.290   9.949  16.308  0.00  0.00    +0.292 C 
BRANCH  31  33
ATOM     32  N   UNL     1      -5.941  11.852  17.126  0.00  0.00    -0.131 NA
ATOM     33  C   UNL     1      -6.494  10.622  17.352  0.00  0.00    +0.121 A 
ATOM     34  C   UNL     1      -6.169  10.210  18.623  0.00  0.00    +0.145 A 
ATOM     35  N   UNL     1      -5.409  11.233  19.142  0.00  0.00    -0.202 N 
ATOM     36  N   UNL     1      -5.287  12.220  18.219  0.00  0.00    -0.059 NA
BRANCH  35  37
ATOM     37  C   UNL     1      -4.809  11.296  20.429  0.00  0.00    +0.156 A 
ATOM     38  C   UNL     1      -4.069  12.424  20.778  0.00  0.00    +0.048 A 
ATOM     39  C   UNL     1      -3.449  12.460  22.025  0.00  0.00    +0.011 A 
ATOM     40  C   UNL     1      -3.579  11.381  22.901  0.00  0.00    -0.004 A 
ATOM     41  C   UNL     1      -4.338  10.297  22.467  0.00  0.00    +0.119 A 
ATOM     42  N   UNL     1      -4.959  10.232  21.265  0.00  0.00    -0.236 NA
BRANCH  40  43
ATOM     43  C   UNL     1      -2.844  11.359  24.209  0.00  0.00    +0.192 C 
BRANCH  43  44
ATOM     44  O   UNL     1      -2.099  12.552  24.403  0.00  0.00    -0.390 OA
ATOM     45  H   UNL     1      -1.330  12.318  24.954  0.00  0.00    +0.210 HD
ENDBRANCH  43  44
ENDBRANCH  40  43
ENDBRANCH  35  37
ENDBRANCH  31  33
ENDBRANCH  30  31
ENDBRANCH  26  30
ENDBRANCH  25  28
ENDBRANCH   1  25
TORSDOF 16
