REMARK VINA RESULT:    -5.106      3.596      6.502
REMARK INTER + INTRA:         -11.214
REMARK INTER:                  -7.816
REMARK INTRA:                  -3.398
REMARK UNBOUND:                -1.779
REMARK  Name = lig_assembled_14.pdb
REMARK  18 active torsions:
REMARK  status: ('A' for Active; 'I' for Inactive)
REMARK    1  A    between atoms: _2  and  _10
REMARK    2  A    between atoms: _3  and  _11
REMARK    3  A    between atoms: _5  and  _19
REMARK    4  A    between atoms: _7  and  _8
REMARK    5  A    between atoms: _7  and  _19
REMARK    6  A    between atoms: _10  and  _11
REMARK    7  A    between atoms: _15  and  _35
REMARK    8  A    between atoms: _17  and  _23
REMARK    9  A    between atoms: _18  and  _22
REMARK   10  A    between atoms: _22  and  _23
REMARK   11  A    between atoms: _25  and  _26
REMARK   12  A    between atoms: _27  and  _28
REMARK   13  A    between atoms: _29  and  _31
REMARK   14  A    between atoms: _31  and  _32
REMARK   15  A    between atoms: _31  and  _33
REMARK   16  A    between atoms: _33  and  _34
REMARK   17  A    between atoms: _33  and  _35
REMARK   18  A    between atoms: _36  and  _38
REMARK                            x       y       z     vdW  Elec       q    Type
REMARK                         _______ _______ _______ _____ _____    ______ ____
ROOT
ATOM      1  C   UNL     1      -2.189  10.199  26.994  0.00  0.00    +0.163 C 
ENDROOT
BRANCH   1   2
ATOM      2  O   UNL     1      -2.521   9.607  25.728  0.00  0.00    -0.388 OA
ATOM      3  H   UNL     1      -3.471   9.480  25.672  0.00  0.00    +0.210 HD
ENDBRANCH   1   2
BRANCH   1   4
ATOM      4  C   UNL     1      -3.369  11.019  27.544  0.00  0.00    +0.175 C 
BRANCH   4   5
ATOM      5  C   UNL     1      -4.220  11.632  26.422  0.00  0.00    +0.176 C 
ATOM      6  O   UNL     1      -3.317  12.238  25.456  0.00  0.00    -0.332 OA
ATOM      7  C   UNL     1      -3.950  12.785  24.253  0.00  0.00    +0.277 C 
ATOM      8  C   UNL     1      -5.059  13.795  24.636  0.00  0.00    +0.110 C 
ATOM      9  C   UNL     1      -6.026  13.207  25.685  0.00  0.00    +0.143 C 
ATOM     10  C   UNL     1      -5.262  12.664  26.893  0.00  0.00    +0.133 C 
BRANCH  10  11
ATOM     11  N   UNL     1      -6.186  12.029  27.845  0.00  0.00    -0.308 N 
ATOM     12  H   UNL     1      -6.663  11.188  27.550  0.00  0.00    +0.149 HD
ATOM     13  C   UNL     1      -6.436  12.490  29.074  0.00  0.00    +0.210 C 
ATOM     14  C   UNL     1      -5.713  13.787  29.483  0.00  0.00    +0.109 C 
ATOM     15  O   UNL     1      -7.205  11.929  29.855  0.00  0.00    -0.276 OA
ENDBRANCH  10  11
BRANCH   7  16
ATOM     16  C   UNL     1      -4.555  11.657  23.392  0.00  0.00    +0.414 C 
ATOM     17  O   UNL     1      -5.636  11.819  22.828  0.00  0.00    -0.240 OA
ATOM     18  O   UNL     1      -3.962  10.585  23.261  0.00  0.00    -0.240 OA
ENDBRANCH   7  16
BRANCH   9  19
ATOM     19  O   UNL     1      -6.937  14.217  26.121  0.00  0.00    -0.390 OA
ATOM     20  H   UNL     1      -7.427  14.553  25.367  0.00  0.00    +0.210 HD
ENDBRANCH   9  19
BRANCH   7  21
ATOM     21  O   UNL     1      -2.934  13.489  23.492  0.00  0.00    -0.343 OA
ATOM     22  C   UNL     1      -3.443  14.467  22.550  0.00  0.00    +0.198 C 
ENDBRANCH   7  21
ENDBRANCH   4   5
BRANCH   4  23
ATOM     23  O   UNL     1      -2.888  12.054  28.424  0.00  0.00    -0.387 OA
ATOM     24  H   UNL     1      -3.292  11.953  29.289  0.00  0.00    +0.210 HD
ENDBRANCH   4  23
ENDBRANCH   1   4
BRANCH   1  25
ATOM     25  C   UNL     1      -1.813   9.112  27.996  0.00  0.00    +0.141 C 
BRANCH  25  28
ATOM     26  C   UNL     1      -2.894   8.424  30.109  0.00  0.00    +0.401 C 
ATOM     27  O   UNL     1      -2.958   7.233  29.798  0.00  0.00    -0.226 OA
ATOM     28  N   UNL     1      -2.380   9.373  29.325  0.00  0.00    -0.279 N 
ATOM     29  H   UNL     1      -2.381  10.325  29.664  0.00  0.00    +0.152 HD
BRANCH  26  30
ATOM     30  O   UNL     1      -3.398   8.838  31.381  0.00  0.00    -0.444 OA
BRANCH  30  31
ATOM     31  C   UNL     1      -4.442   9.797  31.192  0.00  0.00    +0.292 C 
BRANCH  31  33
ATOM     32  N   UNL     1      -2.803  11.618  31.541  0.00  0.00    -0.131 NA
ATOM     33  C   UNL     1      -4.053  11.101  31.761  0.00  0.00    +0.120 A 
ATOM     34  C   UNL     1      -4.767  11.972  32.553  0.00  0.00    +0.137 A 
ATOM     35  N   UNL     1      -3.893  12.989  32.789  0.00  0.00    -0.250 N 
ATOM     36  N   UNL     1      -2.717  12.779  32.173  0.00  0.00    -0.065 NA
BRANCH  35  37
ATOM     37  C   UNL     1      -4.081  14.154  33.626  0.00  0.00    +0.160 C 
BRANCH  37  38
ATOM     38  C   UNL     1      -4.475  15.389  32.807  0.00  0.00    +0.107 C 
BRANCH  38  39
ATOM     39  N   UNL     1      -3.433  16.430  32.798  0.00  0.00    -0.301 NA
ATOM     40  C   UNL     1      -3.958  17.767  32.505  0.00  0.00    +0.084 C 
ATOM     41  C   UNL     1      -2.827  18.669  32.956  0.00  0.00    +0.017 C 
ATOM     42  C   UNL     1      -2.299  17.990  34.207  0.00  0.00    +0.017 C 
ATOM     43  C   UNL     1      -2.760  16.539  34.101  0.00  0.00    +0.084 C 
ENDBRANCH  38  39
ENDBRANCH  37  38
ENDBRANCH  35  37
ENDBRANCH  31  33
ENDBRANCH  30  31
ENDBRANCH  26  30
ENDBRANCH  25  28
ENDBRANCH   1  25
TORSDOF 16
