REMARK VINA RESULT:    -4.577      6.017     11.705
REMARK INTER + INTRA:         -12.942
REMARK INTER:                  -8.866
REMARK INTRA:                  -4.076
REMARK UNBOUND:                -4.083
REMARK  Name = lig_assembled_83.pdb
REMARK  20 active torsions:
REMARK  status: ('A' for Active; 'I' for Inactive)
REMARK    1  A    between atoms: _2  and  _12
REMARK    2  A    between atoms: _3  and  _14
REMARK    3  A    between atoms: _7  and  _24
REMARK    4  A    between atoms: _9  and  _10
REMARK    5  A    between atoms: _9  and  _24
REMARK    6  A    between atoms: _12  and  _13
REMARK    7  A    between atoms: _13  and  _14
REMARK    8  A    between atoms: _13  and  _18
REMARK    9  A    between atoms: _20  and  _40
REMARK   10  A    between atoms: _22  and  _28
REMARK   11  A    between atoms: _23  and  _27
REMARK   12  A    between atoms: _27  and  _28
REMARK   13  A    between atoms: _30  and  _31
REMARK   14  A    between atoms: _32  and  _33
REMARK   15  A    between atoms: _34  and  _36
REMARK   16  A    between atoms: _36  and  _37
REMARK   17  A    between atoms: _36  and  _38
REMARK   18  A    between atoms: _38  and  _39
REMARK   19  A    between atoms: _38  and  _40
REMARK   20  A    between atoms: _41  and  _43
REMARK                            x       y       z     vdW  Elec       q    Type
REMARK                         _______ _______ _______ _____ _____    ______ ____
ROOT
ATOM      1  C   UNL     1      -2.234   9.139  28.376  0.00  0.00    +0.141 C 
ENDROOT
BRANCH   1   4
ATOM      2  C   UNL     1      -3.666   9.279  30.385  0.00  0.00    +0.401 C 
ATOM      3  O   UNL     1      -4.171   8.167  30.219  0.00  0.00    -0.226 OA
ATOM      4  N   UNL     1      -2.757   9.815  29.570  0.00  0.00    -0.279 N 
ATOM      5  H   UNL     1      -2.409  10.739  29.785  0.00  0.00    +0.152 HD
BRANCH   2   6
ATOM      6  O   UNL     1      -4.068  10.063  31.512  0.00  0.00    -0.444 OA
BRANCH   6   7
ATOM      7  C   UNL     1      -2.915  10.425  32.277  0.00  0.00    +0.292 C 
BRANCH   7   9
ATOM      8  N   UNL     1      -1.706  12.594  32.297  0.00  0.00    -0.131 NA
ATOM      9  C   UNL     1      -2.866  11.885  32.478  0.00  0.00    +0.120 A 
ATOM     10  C   UNL     1      -3.867  12.753  32.850  0.00  0.00    +0.137 A 
ATOM     11  N   UNL     1      -3.258  13.970  32.861  0.00  0.00    -0.249 N 
ATOM     12  N   UNL     1      -1.957  13.874  32.541  0.00  0.00    -0.065 NA
BRANCH  11  13
ATOM     13  C   UNL     1      -3.841  15.250  33.202  0.00  0.00    +0.178 C 
BRANCH  13  14
ATOM     14  C   UNL     1      -3.830  16.217  32.015  0.00  0.00    +0.156 C 
BRANCH  14  15
ATOM     15  O   UNL     1      -3.425  15.526  30.828  0.00  0.00    -0.388 OA
ATOM     16  H   UNL     1      -2.483  15.271  30.899  0.00  0.00    +0.210 HD
ENDBRANCH  14  15
BRANCH  14  17
ATOM     17  C   UNL     1      -5.220  16.844  31.819  0.00  0.00    +0.162 C 
BRANCH  17  18
ATOM     18  N   UNL     1      -5.337  17.558  30.558  0.00  0.00    -0.269 N 
ATOM     19  C   UNL     1      -4.918  18.857  30.381  0.00  0.00    +0.113 A 
ATOM     20  C   UNL     1      -5.170  19.150  29.061  0.00  0.00    +0.137 A 
ATOM     21  N   UNL     1      -5.757  18.086  28.431  0.00  0.00    -0.172 NA
ATOM     22  C   UNL     1      -5.840  17.141  29.349  0.00  0.00    +0.450 A 
ATOM     23  N   UNL     1      -6.398  15.836  29.071  0.00  0.00    +0.120 N 
ATOM     24  O   UNL     1      -6.431  15.014  30.000  0.00  0.00    +0.045 OA
ATOM     25  O   UNL     1      -6.818  15.627  27.926  0.00  0.00    -0.573 OA
ENDBRANCH  17  18
ENDBRANCH  14  17
ENDBRANCH  13  14
ENDBRANCH  11  13
ENDBRANCH   7   9
ENDBRANCH   6   7
ENDBRANCH   2   6
ENDBRANCH   1   4
BRANCH   1  26
ATOM     26  C   UNL     1      -2.478   9.952  27.109  0.00  0.00    +0.163 C 
BRANCH  26  27
ATOM     27  O   UNL     1      -1.299   9.945  26.287  0.00  0.00    -0.388 OA
ATOM     28  H   UNL     1      -1.544   9.758  25.377  0.00  0.00    +0.210 HD
ENDBRANCH  26  27
BRANCH  26  29
ATOM     29  C   UNL     1      -3.682   9.370  26.349  0.00  0.00    +0.175 C 
BRANCH  29  30
ATOM     30  C   UNL     1      -4.372  10.421  25.467  0.00  0.00    +0.176 C 
ATOM     31  O   UNL     1      -3.496  10.703  24.340  0.00  0.00    -0.332 OA
ATOM     32  C   UNL     1      -4.040  11.614  23.328  0.00  0.00    +0.277 C 
ATOM     33  C   UNL     1      -4.495  12.941  23.983  0.00  0.00    +0.110 C 
ATOM     34  C   UNL     1      -5.402  12.691  25.205  0.00  0.00    +0.143 C 
ATOM     35  C   UNL     1      -4.741  11.728  26.192  0.00  0.00    +0.133 C 
BRANCH  35  36
ATOM     36  N   UNL     1      -5.651  11.430  27.309  0.00  0.00    -0.308 N 
ATOM     37  H   UNL     1      -6.467  10.867  27.116  0.00  0.00    +0.149 HD
ATOM     38  C   UNL     1      -5.469  11.855  28.563  0.00  0.00    +0.210 C 
ATOM     39  C   UNL     1      -4.229  12.733  28.820  0.00  0.00    +0.109 C 
ATOM     40  O   UNL     1      -6.240  11.577  29.482  0.00  0.00    -0.276 OA
ENDBRANCH  35  36
BRANCH  32  41
ATOM     41  C   UNL     1      -5.232  10.966  22.593  0.00  0.00    +0.414 C 
ATOM     42  O   UNL     1      -6.300  11.568  22.495  0.00  0.00    -0.240 OA
ATOM     43  O   UNL     1      -5.124   9.844  22.098  0.00  0.00    -0.240 OA
ENDBRANCH  32  41
BRANCH  32  44
ATOM     44  O   UNL     1      -2.983  11.911  22.379  0.00  0.00    -0.343 OA
ATOM     45  C   UNL     1      -3.345  12.850  21.335  0.00  0.00    +0.198 C 
ENDBRANCH  32  44
BRANCH  34  46
ATOM     46  O   UNL     1      -5.673  13.929  25.865  0.00  0.00    -0.390 OA
ATOM     47  H   UNL     1      -5.933  13.757  26.774  0.00  0.00    +0.210 HD
ENDBRANCH  34  46
ENDBRANCH  29  30
BRANCH  29  48
ATOM     48  O   UNL     1      -4.628   8.802  27.276  0.00  0.00    -0.387 OA
ATOM     49  H   UNL     1      -4.193   8.130  27.807  0.00  0.00    +0.210 HD
ENDBRANCH  29  48
ENDBRANCH  26  29
ENDBRANCH   1  26
TORSDOF 18
