REMARK VINA RESULT:    -5.318      2.479      8.047
REMARK INTER + INTRA:         -12.193
REMARK INTER:                  -9.117
REMARK INTRA:                  -3.076
REMARK UNBOUND:                -2.989
REMARK  Name = lig_assembled_51.pdb
REMARK  16 active torsions:
REMARK  status: ('A' for Active; 'I' for Inactive)
REMARK    1  A    between atoms: _2  and  _9
REMARK    2  A    between atoms: _4  and  _22
REMARK    3  A    between atoms: _6  and  _7
REMARK    4  A    between atoms: _6  and  _22
REMARK    5  A    between atoms: _18  and  _38
REMARK    6  A    between atoms: _20  and  _26
REMARK    7  A    between atoms: _21  and  _25
REMARK    8  A    between atoms: _25  and  _26
REMARK    9  A    between atoms: _28  and  _29
REMARK   10  A    between atoms: _30  and  _31
REMARK   11  A    between atoms: _32  and  _34
REMARK   12  A    between atoms: _34  and  _35
REMARK   13  A    between atoms: _34  and  _36
REMARK   14  A    between atoms: _36  and  _37
REMARK   15  A    between atoms: _36  and  _38
REMARK   16  A    between atoms: _39  and  _41
REMARK                            x       y       z     vdW  Elec       q    Type
REMARK                         _______ _______ _______ _____ _____    ______ ____
ROOT
ATOM      1  C   UNL     1      -3.970  11.151  30.423  0.00  0.00    +0.163 C 
ENDROOT
BRANCH   1   2
ATOM      2  O   UNL     1      -2.781  10.345  30.371  0.00  0.00    -0.388 OA
ATOM      3  H   UNL     1      -3.022   9.416  30.392  0.00  0.00    +0.210 HD
ENDBRANCH   1   2
BRANCH   1   4
ATOM      4  C   UNL     1      -5.172  10.339  29.950  0.00  0.00    +0.141 C 
BRANCH   4   7
ATOM      5  C   UNL     1      -4.486   8.446  28.517  0.00  0.00    +0.401 C 
ATOM      6  O   UNL     1      -4.233   7.698  29.464  0.00  0.00    -0.226 OA
ATOM      7  N   UNL     1      -4.923   9.699  28.653  0.00  0.00    -0.279 N 
ATOM      8  H   UNL     1      -5.094  10.237  27.815  0.00  0.00    +0.152 HD
BRANCH   5   9
ATOM      9  O   UNL     1      -4.302   7.964  27.184  0.00  0.00    -0.444 OA
BRANCH   9  10
ATOM     10  C   UNL     1      -2.959   8.222  26.763  0.00  0.00    +0.292 C 
BRANCH  10  12
ATOM     11  N   UNL     1      -1.945  10.388  26.125  0.00  0.00    -0.131 NA
ATOM     12  C   UNL     1      -2.906   9.436  25.928  0.00  0.00    +0.120 A 
ATOM     13  C   UNL     1      -3.719   9.829  24.890  0.00  0.00    +0.137 A 
ATOM     14  N   UNL     1      -3.207  11.034  24.496  0.00  0.00    -0.245 N 
ATOM     15  N   UNL     1      -2.138  11.360  25.245  0.00  0.00    -0.065 NA
BRANCH  14  16
ATOM     16  C   UNL     1      -3.697  11.911  23.430  0.00  0.00    +0.066 C 
ATOM     17  C   UNL     1      -3.302  13.384  23.727  0.00  0.00    +0.034 C 
ATOM     18  C   UNL     1      -3.768  14.316  22.595  0.00  0.00    -0.008 C 
ATOM     19  C   UNL     1      -3.121  13.869  21.274  0.00  0.00    +0.007 C 
ATOM     20  C   UNL     1      -3.539  12.427  20.941  0.00  0.00    -0.008 C 
ATOM     21  C   UNL     1      -5.069  12.356  20.822  0.00  0.00    +0.007 C 
ATOM     22  C   UNL     1      -5.719  12.792  22.144  0.00  0.00    -0.008 C 
ATOM     23  C   UNL     1      -5.296  14.234  22.466  0.00  0.00    +0.007 C 
ATOM     24  C   UNL     1      -3.073  11.492  22.069  0.00  0.00    +0.034 C 
ATOM     25  C   UNL     1      -5.247  11.860  23.273  0.00  0.00    +0.034 C 
ENDBRANCH  14  16
ENDBRANCH  10  12
ENDBRANCH   9  10
ENDBRANCH   5   9
ENDBRANCH   4   7
ENDBRANCH   1   4
BRANCH   1  26
ATOM     26  C   UNL     1      -3.823  12.407  29.548  0.00  0.00    +0.175 C 
BRANCH  26  27
ATOM     27  C   UNL     1      -5.178  13.060  29.240  0.00  0.00    +0.176 C 
ATOM     28  O   UNL     1      -5.257  13.272  27.804  0.00  0.00    -0.332 OA
ATOM     29  C   UNL     1      -6.534  13.795  27.309  0.00  0.00    +0.277 C 
ATOM     30  C   UNL     1      -6.909  15.100  28.053  0.00  0.00    +0.110 C 
ATOM     31  C   UNL     1      -6.810  14.932  29.584  0.00  0.00    +0.143 C 
ATOM     32  C   UNL     1      -5.442  14.380  29.987  0.00  0.00    +0.133 C 
BRANCH  32  33
ATOM     33  N   UNL     1      -5.390  14.143  31.439  0.00  0.00    -0.308 N 
ATOM     34  H   UNL     1      -5.992  13.428  31.821  0.00  0.00    +0.149 HD
ATOM     35  C   UNL     1      -4.600  14.811  32.283  0.00  0.00    +0.210 C 
ATOM     36  C   UNL     1      -3.713  15.913  31.672  0.00  0.00    +0.109 C 
ATOM     37  O   UNL     1      -4.567  14.581  33.492  0.00  0.00    -0.276 OA
ENDBRANCH  32  33
BRANCH  29  38
ATOM     38  C   UNL     1      -7.659  12.755  27.494  0.00  0.00    +0.414 C 
ATOM     39  O   UNL     1      -7.516  11.607  27.075  0.00  0.00    -0.240 OA
ATOM     40  O   UNL     1      -8.707  13.064  28.061  0.00  0.00    -0.240 OA
ENDBRANCH  29  38
BRANCH  31  41
ATOM     41  O   UNL     1      -7.015  16.194  30.221  0.00  0.00    -0.390 OA
ATOM     42  H   UNL     1      -6.310  16.352  30.853  0.00  0.00    +0.210 HD
ENDBRANCH  31  41
BRANCH  29  43
ATOM     43  O   UNL     1      -6.378  14.100  25.899  0.00  0.00    -0.343 OA
ATOM     44  C   UNL     1      -6.934  15.373  25.484  0.00  0.00    +0.198 C 
ENDBRANCH  29  43
ENDBRANCH  26  27
BRANCH  26  45
ATOM     45  O   UNL     1      -3.139  12.081  28.322  0.00  0.00    -0.387 OA
ATOM     46  H   UNL     1      -2.379  12.658  28.215  0.00  0.00    +0.210 HD
ENDBRANCH  26  45
ENDBRANCH   1  26
TORSDOF 14
