REMARK VINA RESULT:    -3.690      3.439      7.438
REMARK INTER + INTRA:         -12.070
REMARK INTER:                  -8.307
REMARK INTRA:                  -3.763
REMARK UNBOUND:                -4.498
REMARK  Name = lig_assembled_33.pdb
REMARK  22 active torsions:
REMARK  status: ('A' for Active; 'I' for Inactive)
REMARK    1  A    between atoms: _2  and  _9
REMARK    2  A    between atoms: _4  and  _20
REMARK    3  A    between atoms: _5  and  _13
REMARK    4  A    between atoms: _5  and  _14
REMARK    5  A    between atoms: _6  and  _7
REMARK    6  A    between atoms: _6  and  _20
REMARK    7  A    between atoms: _9  and  _10
REMARK    8  A    between atoms: _10  and  _11
REMARK    9  A    between atoms: _11  and  _12
REMARK   10  A    between atoms: _12  and  _13
REMARK   11  A    between atoms: _16  and  _36
REMARK   12  A    between atoms: _18  and  _24
REMARK   13  A    between atoms: _19  and  _23
REMARK   14  A    between atoms: _23  and  _24
REMARK   15  A    between atoms: _26  and  _27
REMARK   16  A    between atoms: _28  and  _29
REMARK   17  A    between atoms: _30  and  _32
REMARK   18  A    between atoms: _32  and  _33
REMARK   19  A    between atoms: _32  and  _34
REMARK   20  A    between atoms: _34  and  _35
REMARK   21  A    between atoms: _34  and  _36
REMARK   22  A    between atoms: _37  and  _39
REMARK                            x       y       z     vdW  Elec       q    Type
REMARK                         _______ _______ _______ _____ _____    ______ ____
ROOT
ATOM      1  C   UNL     1      -2.408   9.944  27.138  0.00  0.00    +0.163 C 
ENDROOT
BRANCH   1   2
ATOM      2  O   UNL     1      -1.251   9.959  26.286  0.00  0.00    -0.388 OA
ATOM      3  H   UNL     1      -0.914  10.855  26.218  0.00  0.00    +0.210 HD
ENDBRANCH   1   2
BRANCH   1   4
ATOM      4  C   UNL     1      -3.616   9.324  26.414  0.00  0.00    +0.175 C 
BRANCH   4   5
ATOM      5  C   UNL     1      -4.335  10.341  25.515  0.00  0.00    +0.176 C 
ATOM      6  O   UNL     1      -3.475  10.619  24.376  0.00  0.00    -0.332 OA
ATOM      7  C   UNL     1      -4.046  11.496  23.349  0.00  0.00    +0.277 C 
ATOM      8  C   UNL     1      -4.526  12.826  23.980  0.00  0.00    +0.110 C 
ATOM      9  C   UNL     1      -5.419  12.582  25.214  0.00  0.00    +0.143 C 
ATOM     10  C   UNL     1      -4.729  11.655  26.216  0.00  0.00    +0.133 C 
BRANCH  10  11
ATOM     11  N   UNL     1      -5.624  11.360  27.346  0.00  0.00    -0.308 N 
ATOM     12  H   UNL     1      -6.432  10.780  27.169  0.00  0.00    +0.149 HD
ATOM     13  C   UNL     1      -5.437  11.809  28.590  0.00  0.00    +0.210 C 
ATOM     14  C   UNL     1      -4.211  12.711  28.822  0.00  0.00    +0.109 C 
ATOM     15  O   UNL     1      -6.196  11.534  29.521  0.00  0.00    -0.276 OA
ENDBRANCH  10  11
BRANCH   7  16
ATOM     16  C   UNL     1      -5.228  10.806  22.638  0.00  0.00    +0.414 C 
ATOM     17  O   UNL     1      -5.107   9.663  22.199  0.00  0.00    -0.240 OA
ATOM     18  O   UNL     1      -6.303  11.393  22.502  0.00  0.00    -0.240 OA
ENDBRANCH   7  16
BRANCH   9  19
ATOM     19  O   UNL     1      -5.713  13.826  25.850  0.00  0.00    -0.390 OA
ATOM     20  H   UNL     1      -4.976  14.430  25.730  0.00  0.00    +0.210 HD
ENDBRANCH   9  19
BRANCH   7  21
ATOM     21  O   UNL     1      -3.004  11.796  22.386  0.00  0.00    -0.343 OA
ATOM     22  C   UNL     1      -3.404  12.676  21.305  0.00  0.00    +0.198 C 
ENDBRANCH   7  21
ENDBRANCH   4   5
BRANCH   4  23
ATOM     23  O   UNL     1      -4.538   8.769  27.372  0.00  0.00    -0.387 OA
ATOM     24  H   UNL     1      -5.372   9.243  27.328  0.00  0.00    +0.210 HD
ENDBRANCH   4  23
ENDBRANCH   1   4
BRANCH   1  25
ATOM     25  C   UNL     1      -2.113   9.151  28.406  0.00  0.00    +0.141 C 
BRANCH  25  28
ATOM     26  C   UNL     1      -3.470   9.292  30.466  0.00  0.00    +0.401 C 
ATOM     27  O   UNL     1      -3.954   8.166  30.337  0.00  0.00    -0.226 OA
ATOM     28  N   UNL     1      -2.606   9.835  29.607  0.00  0.00    -0.279 N 
ATOM     29  H   UNL     1      -2.272  10.770  29.794  0.00  0.00    +0.152 HD
BRANCH  26  30
ATOM     30  O   UNL     1      -3.847  10.085  31.595  0.00  0.00    -0.444 OA
BRANCH  30  31
ATOM     31  C   UNL     1      -2.681  10.672  32.177  0.00  0.00    +0.292 C 
BRANCH  31  33
ATOM     32  N   UNL     1      -1.691  12.936  32.057  0.00  0.00    -0.131 NA
ATOM     33  C   UNL     1      -2.799  12.142  32.197  0.00  0.00    +0.120 A 
ATOM     34  C   UNL     1      -3.911  12.942  32.347  0.00  0.00    +0.137 A 
ATOM     35  N   UNL     1      -3.412  14.208  32.281  0.00  0.00    -0.251 N 
ATOM     36  N   UNL     1      -2.078  14.202  32.124  0.00  0.00    -0.065 NA
BRANCH  35  37
ATOM     37  C   UNL     1      -4.132  15.462  32.371  0.00  0.00    +0.145 C 
BRANCH  37  38
ATOM     38  C   UNL     1      -4.342  16.104  31.001  0.00  0.00    +0.023 C 
BRANCH  38  39
ATOM     39  C   UNL     1      -5.411  17.198  31.021  0.00  0.00    +0.002 C 
BRANCH  39  40
ATOM     40  C   UNL     1      -6.201  17.178  29.710  0.00  0.00    +0.011 C 
BRANCH  40  41
ATOM     41  C   UNL     1      -6.119  15.834  28.990  0.00  0.00    +0.120 C 
BRANCH  41  42
ATOM     42  C   UNL     1      -7.442  15.102  29.044  0.00  0.00    +0.305 C 
ATOM     43  O   UNL     1      -8.238  15.148  29.968  0.00  0.00    -0.251 OA
BRANCH  42  44
ATOM     44  O   UNL     1      -7.672  14.370  27.929  0.00  0.00    -0.481 OA
ATOM     45  H   UNL     1      -8.500  13.859  27.957  0.00  0.00    +0.295 HD
ENDBRANCH  42  44
ENDBRANCH  41  42
ENDBRANCH  40  41
ENDBRANCH  39  40
ENDBRANCH  38  39
ENDBRANCH  37  38
ENDBRANCH  35  37
ENDBRANCH  31  33
ENDBRANCH  30  31
ENDBRANCH  26  30
ENDBRANCH  25  28
ENDBRANCH   1  25
TORSDOF 20
