REMARK VINA RESULT:    -4.514      2.141      2.542
REMARK INTER + INTRA:         -11.165
REMARK INTER:                  -6.513
REMARK INTRA:                  -4.653
REMARK UNBOUND:                -2.560
REMARK  Name = lig_assembled_18.pdb
REMARK  19 active torsions:
REMARK  status: ('A' for Active; 'I' for Inactive)
REMARK    1  A    between atoms: _2  and  _10
REMARK    2  A    between atoms: _3  and  _12
REMARK    3  A    between atoms: _5  and  _21
REMARK    4  A    between atoms: _7  and  _8
REMARK    5  A    between atoms: _7  and  _21
REMARK    6  A    between atoms: _10  and  _11
REMARK    7  A    between atoms: _12  and  _13
REMARK    8  A    between atoms: _17  and  _37
REMARK    9  A    between atoms: _19  and  _25
REMARK   10  A    between atoms: _20  and  _24
REMARK   11  A    between atoms: _24  and  _25
REMARK   12  A    between atoms: _27  and  _28
REMARK   13  A    between atoms: _29  and  _30
REMARK   14  A    between atoms: _31  and  _33
REMARK   15  A    between atoms: _33  and  _34
REMARK   16  A    between atoms: _33  and  _35
REMARK   17  A    between atoms: _35  and  _36
REMARK   18  A    between atoms: _35  and  _37
REMARK   19  A    between atoms: _38  and  _40
REMARK                            x       y       z     vdW  Elec       q    Type
REMARK                         _______ _______ _______ _____ _____    ______ ____
ROOT
ATOM      1  C   UNL     1      -7.722  10.160  23.881  0.00  0.00    +0.163 C 
ENDROOT
BRANCH   1   2
ATOM      2  O   UNL     1      -7.633   9.680  25.233  0.00  0.00    -0.388 OA
ATOM      3  H   UNL     1      -7.805  10.403  25.842  0.00  0.00    +0.210 HD
ENDBRANCH   1   2
BRANCH   1   4
ATOM      4  C   UNL     1      -6.807  11.378  23.668  0.00  0.00    +0.175 C 
BRANCH   4   5
ATOM      5  C   UNL     1      -5.579  11.347  24.590  0.00  0.00    +0.176 C 
ATOM      6  O   UNL     1      -5.929  12.031  25.825  0.00  0.00    -0.332 OA
ATOM      7  C   UNL     1      -4.906  12.008  26.874  0.00  0.00    +0.277 C 
ATOM      8  C   UNL     1      -3.564  12.559  26.333  0.00  0.00    +0.110 C 
ATOM      9  C   UNL     1      -3.165  11.883  25.004  0.00  0.00    +0.143 C 
ATOM     10  C   UNL     1      -4.303  11.962  23.986  0.00  0.00    +0.133 C 
BRANCH  10  11
ATOM     11  N   UNL     1      -3.945  11.240  22.755  0.00  0.00    -0.308 N 
ATOM     12  H   UNL     1      -3.734  10.255  22.831  0.00  0.00    +0.149 HD
ATOM     13  C   UNL     1      -3.879  11.801  21.545  0.00  0.00    +0.210 C 
ATOM     14  C   UNL     1      -4.181  13.310  21.467  0.00  0.00    +0.109 C 
ATOM     15  O   UNL     1      -3.590  11.168  20.529  0.00  0.00    -0.276 OA
ENDBRANCH  10  11
BRANCH   7  16
ATOM     16  C   UNL     1      -4.699  10.575  27.405  0.00  0.00    +0.414 C 
ATOM     17  O   UNL     1      -5.528   9.698  27.164  0.00  0.00    -0.240 OA
ATOM     18  O   UNL     1      -3.703  10.295  28.074  0.00  0.00    -0.240 OA
ENDBRANCH   7  16
BRANCH   7  19
ATOM     19  O   UNL     1      -5.351  12.869  27.954  0.00  0.00    -0.343 OA
ATOM     20  C   UNL     1      -6.418  13.788  27.604  0.00  0.00    +0.198 C 
ENDBRANCH   7  19
BRANCH   9  21
ATOM     21  O   UNL     1      -2.007  12.523  24.466  0.00  0.00    -0.390 OA
ATOM     22  H   UNL     1      -2.164  12.748  23.546  0.00  0.00    +0.210 HD
ENDBRANCH   9  21
ENDBRANCH   4   5
BRANCH   4  23
ATOM     23  O   UNL     1      -7.548  12.598  23.870  0.00  0.00    -0.387 OA
ATOM     24  H   UNL     1      -8.375  12.400  24.317  0.00  0.00    +0.210 HD
ENDBRANCH   4  23
ENDBRANCH   1   4
BRANCH   1  25
ATOM     25  C   UNL     1      -7.332   9.053  22.908  0.00  0.00    +0.141 C 
BRANCH  25  28
ATOM     26  C   UNL     1      -5.193   7.822  23.026  0.00  0.00    +0.401 C 
ATOM     27  O   UNL     1      -4.730   8.340  22.007  0.00  0.00    -0.226 OA
ATOM     28  N   UNL     1      -6.404   8.092  23.515  0.00  0.00    -0.279 N 
ATOM     29  H   UNL     1      -6.699   7.608  24.352  0.00  0.00    +0.152 HD
BRANCH  26  30
ATOM     30  O   UNL     1      -4.403   6.867  23.739  0.00  0.00    -0.444 OA
BRANCH  30  31
ATOM     31  C   UNL     1      -4.882   6.759  25.083  0.00  0.00    +0.292 C 
BRANCH  31  33
ATOM     32  N   UNL     1      -2.692   7.763  25.668  0.00  0.00    -0.131 NA
ATOM     33  C   UNL     1      -3.794   7.039  26.039  0.00  0.00    +0.120 A 
ATOM     34  C   UNL     1      -3.666   6.673  27.359  0.00  0.00    +0.137 A 
ATOM     35  N   UNL     1      -2.481   7.227  27.745  0.00  0.00    -0.242 N 
ATOM     36  N   UNL     1      -1.888   7.864  26.718  0.00  0.00    -0.065 NA
BRANCH  35  37
ATOM     37  C   UNL     1      -1.796   7.101  29.009  0.00  0.00    +0.240 C 
BRANCH  37  38
ATOM     38  C   UNL     1      -2.726   7.285  30.186  0.00  0.00    +0.235 C 
ATOM     39  O   UNL     1      -3.152   6.333  30.837  0.00  0.00    -0.274 OA
ATOM     40  N   UNL     1      -3.013   8.596  30.508  0.00  0.00    -0.309 N 
ATOM     41  H   UNL     1      -2.787   9.339  29.863  0.00  0.00    +0.149 HD
BRANCH  40  42
ATOM     42  C   UNL     1      -3.877   8.928  31.622  0.00  0.00    +0.146 C 
BRANCH  42  43
ATOM     43  C   UNL     1      -5.175   9.463  31.108  0.00  0.00    +0.007 A 
ATOM     44  S   UNL     1      -6.367   8.406  30.476  0.00  0.00    -0.100 S 
ATOM     45  C   UNL     1      -7.405   9.708  30.084  0.00  0.00    +0.045 A 
ATOM     46  C   UNL     1      -6.867  10.925  30.439  0.00  0.00    +0.008 A 
ATOM     47  C   UNL     1      -5.582  10.782  31.038  0.00  0.00    +0.013 A 
ENDBRANCH  42  43
ENDBRANCH  40  42
ENDBRANCH  37  38
ENDBRANCH  35  37
ENDBRANCH  31  33
ENDBRANCH  30  31
ENDBRANCH  26  30
ENDBRANCH  25  28
ENDBRANCH   1  25
TORSDOF 17
