REMARK VINA RESULT:    -4.993      4.877     10.119
REMARK INTER + INTRA:         -11.693
REMARK INTER:                  -8.083
REMARK INTRA:                  -3.610
REMARK UNBOUND:                -2.759
REMARK  Name = lig_assembled_38.pdb
REMARK  17 active torsions:
REMARK  status: ('A' for Active; 'I' for Inactive)
REMARK    1  A    between atoms: _2  and  _9
REMARK    2  A    between atoms: _4  and  _19
REMARK    3  A    between atoms: _6  and  _7
REMARK    4  A    between atoms: _6  and  _19
REMARK    5  A    between atoms: _9  and  _10
REMARK    6  A    between atoms: _15  and  _35
REMARK    7  A    between atoms: _17  and  _23
REMARK    8  A    between atoms: _18  and  _22
REMARK    9  A    between atoms: _22  and  _23
REMARK   10  A    between atoms: _25  and  _26
REMARK   11  A    between atoms: _27  and  _28
REMARK   12  A    between atoms: _29  and  _31
REMARK   13  A    between atoms: _31  and  _32
REMARK   14  A    between atoms: _31  and  _33
REMARK   15  A    between atoms: _33  and  _34
REMARK   16  A    between atoms: _33  and  _35
REMARK   17  A    between atoms: _36  and  _38
REMARK                            x       y       z     vdW  Elec       q    Type
REMARK                         _______ _______ _______ _____ _____    ______ ____
ROOT
ATOM      1  C   UNL     1      -2.456   9.956  27.169  0.00  0.00    +0.163 C 
ENDROOT
BRANCH   1   2
ATOM      2  O   UNL     1      -1.311  10.069  26.308  0.00  0.00    -0.388 OA
ATOM      3  H   UNL     1      -1.273   9.307  25.724  0.00  0.00    +0.210 HD
ENDBRANCH   1   2
BRANCH   1   4
ATOM      4  C   UNL     1      -2.142   9.023  28.334  0.00  0.00    +0.141 C 
BRANCH   4   7
ATOM      5  C   UNL     1      -3.624   8.642  30.274  0.00  0.00    +0.401 C 
ATOM      6  O   UNL     1      -3.888   7.479  29.963  0.00  0.00    -0.226 OA
ATOM      7  N   UNL     1      -2.822   9.439  29.567  0.00  0.00    -0.279 N 
ATOM      8  H   UNL     1      -2.674  10.382  29.898  0.00  0.00    +0.152 HD
BRANCH   5   9
ATOM      9  O   UNL     1      -4.205   9.194  31.459  0.00  0.00    -0.444 OA
BRANCH   9  10
ATOM     10  C   UNL     1      -3.184   9.406  32.437  0.00  0.00    +0.292 C 
BRANCH  10  12
ATOM     11  N   UNL     1      -1.951  11.520  32.054  0.00  0.00    -0.131 NA
ATOM     12  C   UNL     1      -2.980  10.851  32.663  0.00  0.00    +0.120 A 
ATOM     13  C   UNL     1      -3.715  11.741  33.413  0.00  0.00    +0.137 A 
ATOM     14  N   UNL     1      -3.118  12.946  33.174  0.00  0.00    -0.247 N 
ATOM     15  N   UNL     1      -2.049  12.804  32.368  0.00  0.00    -0.065 NA
BRANCH  14  16
ATOM     16  C   UNL     1      -3.636  14.267  33.479  0.00  0.00    +0.180 C 
BRANCH  16  17
ATOM     17  C   UNL     1      -4.434  14.875  32.351  0.00  0.00    -0.025 A 
ATOM     18  C   UNL     1      -3.884  15.880  31.539  0.00  0.00    +0.005 A 
ATOM     19  C   UNL     1      -4.594  16.374  30.440  0.00  0.00    +0.001 A 
ATOM     20  C   UNL     1      -5.860  15.872  30.140  0.00  0.00    +0.015 A 
ATOM     21  C   UNL     1      -6.414  14.883  30.947  0.00  0.00    +0.018 A 
ATOM     22 BR   UNL     1      -8.127  14.192  30.539  0.00  0.00    -0.050 Br
ATOM     23  C   UNL     1      -5.713  14.383  32.046  0.00  0.00    +0.020 A 
ENDBRANCH  16  17
ENDBRANCH  14  16
ENDBRANCH  10  12
ENDBRANCH   9  10
ENDBRANCH   5   9
ENDBRANCH   4   7
ENDBRANCH   1   4
BRANCH   1  24
ATOM     24  C   UNL     1      -3.674   9.422  26.397  0.00  0.00    +0.175 C 
BRANCH  24  25
ATOM     25  C   UNL     1      -4.447  10.544  25.689  0.00  0.00    +0.176 C 
ATOM     26  O   UNL     1      -3.665  10.967  24.538  0.00  0.00    -0.332 OA
ATOM     27  C   UNL     1      -4.299  11.968  23.674  0.00  0.00    +0.277 C 
ATOM     28  C   UNL     1      -4.726  13.205  24.501  0.00  0.00    +0.110 C 
ATOM     29  C   UNL     1      -5.533  12.802  25.753  0.00  0.00    +0.143 C 
ATOM     30  C   UNL     1      -4.782  11.756  26.577  0.00  0.00    +0.133 C 
BRANCH  30  31
ATOM     31  N   UNL     1      -5.599  11.317  27.720  0.00  0.00    -0.308 N 
ATOM     32  H   UNL     1      -6.390  10.717  27.531  0.00  0.00    +0.149 HD
ATOM     33  C   UNL     1      -5.364  11.660  28.989  0.00  0.00    +0.210 C 
ATOM     34  C   UNL     1      -4.167  12.596  29.240  0.00  0.00    +0.109 C 
ATOM     35  O   UNL     1      -6.056  11.264  29.928  0.00  0.00    -0.276 OA
ENDBRANCH  30  31
BRANCH  27  36
ATOM     36  C   UNL     1      -5.533  11.373  22.963  0.00  0.00    +0.414 C 
ATOM     37  O   UNL     1      -5.591  10.167  22.727  0.00  0.00    -0.240 OA
ATOM     38  O   UNL     1      -6.469  12.099  22.626  0.00  0.00    -0.240 OA
ENDBRANCH  27  36
BRANCH  27  39
ATOM     39  O   UNL     1      -3.324  12.391  22.687  0.00  0.00    -0.343 OA
ATOM     40  C   UNL     1      -3.422  13.782  22.287  0.00  0.00    +0.198 C 
ENDBRANCH  27  39
BRANCH  29  41
ATOM     41  O   UNL     1      -5.774  13.955  26.562  0.00  0.00    -0.390 OA
ATOM     42  H   UNL     1      -6.532  13.796  27.129  0.00  0.00    +0.210 HD
ENDBRANCH  29  41
ENDBRANCH  24  25
BRANCH  24  43
ATOM     43  O   UNL     1      -4.550   8.702  27.288  0.00  0.00    -0.387 OA
ATOM     44  H   UNL     1      -4.234   8.793  28.190  0.00  0.00    +0.210 HD
ENDBRANCH  24  43
ENDBRANCH   1  24
TORSDOF 15
