REMARK VINA RESULT:    -5.222      3.763      6.560
REMARK INTER + INTRA:         -12.632
REMARK INTER:                 -10.116
REMARK INTRA:                  -2.516
REMARK UNBOUND:                -2.678
REMARK  Name = lig_assembled_26.pdb
REMARK  20 active torsions:
REMARK  status: ('A' for Active; 'I' for Inactive)
REMARK    1  A    between atoms: _2  and  _9
REMARK    2  A    between atoms: _4  and  _23
REMARK    3  A    between atoms: _6  and  _7
REMARK    4  A    between atoms: _6  and  _23
REMARK    5  A    between atoms: _9  and  _10
REMARK    6  A    between atoms: _9  and  _11
REMARK    7  A    between atoms: _11  and  _12
REMARK    8  A    between atoms: _12  and  _13
REMARK    9  A    between atoms: _19  and  _39
REMARK   10  A    between atoms: _21  and  _27
REMARK   11  A    between atoms: _22  and  _26
REMARK   12  A    between atoms: _26  and  _27
REMARK   13  A    between atoms: _29  and  _30
REMARK   14  A    between atoms: _31  and  _32
REMARK   15  A    between atoms: _33  and  _35
REMARK   16  A    between atoms: _35  and  _36
REMARK   17  A    between atoms: _35  and  _37
REMARK   18  A    between atoms: _37  and  _38
REMARK   19  A    between atoms: _37  and  _39
REMARK   20  A    between atoms: _40  and  _42
REMARK                            x       y       z     vdW  Elec       q    Type
REMARK                         _______ _______ _______ _____ _____    ______ ____
ROOT
ATOM      1  C   UNL     1      -3.934  10.968  29.737  0.00  0.00    +0.163 C 
ENDROOT
BRANCH   1   2
ATOM      2  O   UNL     1      -2.946  11.765  30.411  0.00  0.00    -0.388 OA
ATOM      3  H   UNL     1      -2.564  11.259  31.133  0.00  0.00    +0.210 HD
ENDBRANCH   1   2
BRANCH   1   4
ATOM      4  C   UNL     1      -4.840  11.845  28.856  0.00  0.00    +0.175 C 
BRANCH   4   5
ATOM      5  C   UNL     1      -4.952  13.281  29.391  0.00  0.00    +0.176 C 
ATOM      6  O   UNL     1      -4.995  13.215  30.843  0.00  0.00    -0.332 OA
ATOM      7  C   UNL     1      -4.995  14.506  31.536  0.00  0.00    +0.277 C 
ATOM      8  C   UNL     1      -6.151  15.398  31.019  0.00  0.00    +0.110 C 
ATOM      9  C   UNL     1      -6.165  15.473  29.477  0.00  0.00    +0.143 C 
ATOM     10  C   UNL     1      -6.160  14.074  28.860  0.00  0.00    +0.133 C 
BRANCH  10  11
ATOM     11  N   UNL     1      -6.086  14.159  27.393  0.00  0.00    -0.308 N 
ATOM     12  H   UNL     1      -5.223  14.486  26.982  0.00  0.00    +0.149 HD
ATOM     13  C   UNL     1      -7.085  13.831  26.569  0.00  0.00    +0.210 C 
ATOM     14  C   UNL     1      -8.396  13.360  27.227  0.00  0.00    +0.109 C 
ATOM     15  O   UNL     1      -6.990  13.898  25.343  0.00  0.00    -0.276 OA
ENDBRANCH  10  11
BRANCH   7  16
ATOM     16  C   UNL     1      -3.651  15.236  31.335  0.00  0.00    +0.414 C 
ATOM     17  O   UNL     1      -3.572  16.451  31.511  0.00  0.00    -0.240 OA
ATOM     18  O   UNL     1      -2.646  14.610  30.997  0.00  0.00    -0.240 OA
ENDBRANCH   7  16
BRANCH   7  19
ATOM     19  O   UNL     1      -5.208  14.256  32.950  0.00  0.00    -0.343 OA
ATOM     20  C   UNL     1      -4.790  12.947  33.410  0.00  0.00    +0.198 C 
ENDBRANCH   7  19
BRANCH   9  21
ATOM     21  O   UNL     1      -7.329  16.176  29.040  0.00  0.00    -0.390 OA
ATOM     22  H   UNL     1      -7.706  15.729  28.279  0.00  0.00    +0.210 HD
ENDBRANCH   9  21
ENDBRANCH   4   5
BRANCH   4  23
ATOM     23  O   UNL     1      -6.149  11.253  28.746  0.00  0.00    -0.387 OA
ATOM     24  H   UNL     1      -6.241  10.836  27.886  0.00  0.00    +0.210 HD
ENDBRANCH   4  23
ENDBRANCH   1   4
BRANCH   1  25
ATOM     25  C   UNL     1      -3.251   9.912  28.873  0.00  0.00    +0.141 C 
BRANCH  25  28
ATOM     26  C   UNL     1      -1.941  10.178  26.795  0.00  0.00    +0.401 C 
ATOM     27  O   UNL     1      -0.945   9.600  27.238  0.00  0.00    -0.226 OA
ATOM     28  N   UNL     1      -3.060  10.374  27.493  0.00  0.00    -0.279 N 
ATOM     29  H   UNL     1      -3.820  10.868  27.046  0.00  0.00    +0.152 HD
BRANCH  26  30
ATOM     30  O   UNL     1      -1.914  10.681  25.457  0.00  0.00    -0.444 OA
BRANCH  30  31
ATOM     31  C   UNL     1      -3.077  11.479  25.223  0.00  0.00    +0.292 C 
BRANCH  31  33
ATOM     32  N   UNL     1      -3.096  10.269  23.057  0.00  0.00    -0.131 NA
ATOM     33  C   UNL     1      -3.569  11.282  23.848  0.00  0.00    +0.120 A 
ATOM     34  C   UNL     1      -4.513  11.997  23.149  0.00  0.00    +0.137 A 
ATOM     35  N   UNL     1      -4.555  11.393  21.928  0.00  0.00    -0.248 N 
ATOM     36  N   UNL     1      -3.720  10.334  21.887  0.00  0.00    -0.065 NA
BRANCH  35  37
ATOM     37  C   UNL     1      -5.393  11.690  20.777  0.00  0.00    +0.113 C 
ATOM     38  C   UNL     1      -6.541  12.667  21.064  0.00  0.00    +0.033 C 
BRANCH  37  39
ATOM     39  C   UNL     1      -4.577  12.115  19.543  0.00  0.00    +0.106 C 
BRANCH  39  40
ATOM     40  C   UNL     1      -4.812  11.251  18.318  0.00  0.00    +0.165 C 
ATOM     41  O   UNL     1      -4.813  10.023  18.370  0.00  0.00    -0.292 OA
BRANCH  40  42
ATOM     42  C   UNL     1      -5.010  11.916  16.994  0.00  0.00    +0.017 A 
ATOM     43  C   UNL     1      -6.251  11.950  16.348  0.00  0.00    +0.011 A 
ATOM     44  C   UNL     1      -6.388  12.622  15.131  0.00  0.00    +0.001 A 
ATOM     45  C   UNL     1      -5.290  13.256  14.552  0.00  0.00    +0.000 A 
ATOM     46  C   UNL     1      -4.050  13.217  15.182  0.00  0.00    +0.001 A 
ATOM     47  C   UNL     1      -3.909  12.550  16.400  0.00  0.00    +0.011 A 
ENDBRANCH  40  42
ENDBRANCH  39  40
ENDBRANCH  37  39
ENDBRANCH  35  37
ENDBRANCH  31  33
ENDBRANCH  30  31
ENDBRANCH  26  30
ENDBRANCH  25  28
ENDBRANCH   1  25
TORSDOF 17
