REMARK VINA RESULT:    -4.772      1.567      1.885
REMARK INTER + INTRA:         -12.334
REMARK INTER:                  -9.635
REMARK INTRA:                  -2.699
REMARK UNBOUND:                -3.657
REMARK  Name = lig_assembled_88.pdb
REMARK  18 active torsions:
REMARK  status: ('A' for Active; 'I' for Inactive)
REMARK    1  A    between atoms: _2  and  _9
REMARK    2  A    between atoms: _4  and  _20
REMARK    3  A    between atoms: _5  and  _15
REMARK    4  A    between atoms: _6  and  _7
REMARK    5  A    between atoms: _6  and  _20
REMARK    6  A    between atoms: _9  and  _10
REMARK    7  A    between atoms: _16  and  _36
REMARK    8  A    between atoms: _18  and  _24
REMARK    9  A    between atoms: _19  and  _23
REMARK   10  A    between atoms: _23  and  _24
REMARK   11  A    between atoms: _26  and  _27
REMARK   12  A    between atoms: _28  and  _29
REMARK   13  A    between atoms: _30  and  _32
REMARK   14  A    between atoms: _32  and  _33
REMARK   15  A    between atoms: _32  and  _34
REMARK   16  A    between atoms: _34  and  _35
REMARK   17  A    between atoms: _34  and  _36
REMARK   18  A    between atoms: _37  and  _39
REMARK                            x       y       z     vdW  Elec       q    Type
REMARK                         _______ _______ _______ _____ _____    ______ ____
ROOT
ATOM      1  C   UNL     1      -5.909  12.203  25.734  0.00  0.00    +0.163 C 
ENDROOT
BRANCH   1   2
ATOM      2  O   UNL     1      -5.884  11.126  24.783  0.00  0.00    -0.388 OA
ATOM      3  H   UNL     1      -6.299  10.350  25.167  0.00  0.00    +0.210 HD
ENDBRANCH   1   2
BRANCH   1   4
ATOM      4  C   UNL     1      -5.863  11.666  27.175  0.00  0.00    +0.175 C 
BRANCH   4   5
ATOM      5  C   UNL     1      -4.524  10.985  27.495  0.00  0.00    +0.176 C 
ATOM      6  O   UNL     1      -4.429   9.782  26.684  0.00  0.00    -0.332 OA
ATOM      7  C   UNL     1      -3.161   9.052  26.780  0.00  0.00    +0.277 C 
ATOM      8  C   UNL     1      -2.841   8.714  28.257  0.00  0.00    +0.110 C 
ATOM      9  C   UNL     1      -2.961   9.957  29.164  0.00  0.00    +0.143 C 
ATOM     10  C   UNL     1      -4.316  10.641  28.982  0.00  0.00    +0.133 C 
BRANCH  10  11
ATOM     11  N   UNL     1      -4.385  11.871  29.786  0.00  0.00    -0.308 N 
ATOM     12  H   UNL     1      -3.725  12.608  29.578  0.00  0.00    +0.149 HD
ATOM     13  C   UNL     1      -5.262  12.079  30.772  0.00  0.00    +0.210 C 
ATOM     14  C   UNL     1      -6.237  10.927  31.081  0.00  0.00    +0.109 C 
ATOM     15  O   UNL     1      -5.305  13.126  31.419  0.00  0.00    -0.276 OA
ENDBRANCH  10  11
BRANCH   7  16
ATOM     16  C   UNL     1      -2.007   9.880  26.178  0.00  0.00    +0.414 C 
ATOM     17  O   UNL     1      -0.879   9.817  26.666  0.00  0.00    -0.240 OA
ATOM     18  O   UNL     1      -2.203  10.610  25.206  0.00  0.00    -0.240 OA
ENDBRANCH   7  16
BRANCH   7  19
ATOM     19  O   UNL     1      -3.304   7.808  26.047  0.00  0.00    -0.343 OA
ATOM     20  C   UNL     1      -4.380   7.789  25.075  0.00  0.00    +0.198 C 
ENDBRANCH   7  19
BRANCH   9  21
ATOM     21  O   UNL     1      -2.807   9.572  30.531  0.00  0.00    -0.390 OA
ATOM     22  H   UNL     1      -2.041  10.015  30.904  0.00  0.00    +0.210 HD
ENDBRANCH   9  21
ENDBRANCH   4   5
BRANCH   4  23
ATOM     23  O   UNL     1      -6.953  10.749  27.398  0.00  0.00    -0.387 OA
ATOM     24  H   UNL     1      -6.810   9.950  26.884  0.00  0.00    +0.210 HD
ENDBRANCH   4  23
ENDBRANCH   1   4
BRANCH   1  25
ATOM     25  C   UNL     1      -4.724  13.134  25.499  0.00  0.00    +0.141 C 
BRANCH  25  28
ATOM     26  C   UNL     1      -4.116  13.724  23.178  0.00  0.00    +0.401 C 
ATOM     27  O   UNL     1      -4.712  14.804  23.197  0.00  0.00    -0.226 OA
ATOM     28  N   UNL     1      -4.074  12.878  24.208  0.00  0.00    -0.279 N 
ATOM     29  H   UNL     1      -3.567  12.012  24.093  0.00  0.00    +0.152 HD
BRANCH  26  30
ATOM     30  O   UNL     1      -3.424  13.334  21.990  0.00  0.00    -0.444 OA
BRANCH  30  31
ATOM     31  C   UNL     1      -3.132  11.935  22.044  0.00  0.00    +0.292 C 
BRANCH  31  33
ATOM     32  N   UNL     1      -4.097   9.835  21.155  0.00  0.00    -0.131 NA
ATOM     33  C   UNL     1      -3.961  11.196  21.073  0.00  0.00    +0.120 A 
ATOM     34  C   UNL     1      -4.676  11.656  19.990  0.00  0.00    +0.137 A 
ATOM     35  N   UNL     1      -5.160  10.518  19.412  0.00  0.00    -0.247 N 
ATOM     36  N   UNL     1      -4.854   9.431  20.144  0.00  0.00    -0.065 NA
BRANCH  35  37
ATOM     37  C   UNL     1      -5.855  10.383  18.141  0.00  0.00    +0.184 C 
BRANCH  37  38
ATOM     38  C   UNL     1      -4.947  10.568  16.942  0.00  0.00    +0.017 A 
ATOM     39  C   UNL     1      -4.808  11.805  16.282  0.00  0.00    +0.024 A 
ATOM     40  C   UNL     1      -3.961  11.938  15.178  0.00  0.00    +0.019 A 
ATOM     41 BR   UNL     1      -3.839  13.602  14.289  0.00  0.00    -0.050 Br
ATOM     42  C   UNL     1      -3.208  10.860  14.724  0.00  0.00    +0.034 A 
ATOM     43  C   UNL     1      -3.299   9.643  15.394  0.00  0.00    +0.061 A 
ATOM     44 BR   UNL     1      -2.243   8.188  14.793  0.00  0.00    -0.046 Br
ATOM     45  C   UNL     1      -4.156   9.500  16.494  0.00  0.00    +0.136 A 
BRANCH  45  46
ATOM     46  O   UNL     1      -4.241   8.312  17.171  0.00  0.00    -0.505 OA
ATOM     47  H   UNL     1      -3.786   8.427  18.027  0.00  0.00    +0.292 HD
ENDBRANCH  45  46
ENDBRANCH  37  38
ENDBRANCH  35  37
ENDBRANCH  31  33
ENDBRANCH  30  31
ENDBRANCH  26  30
ENDBRANCH  25  28
ENDBRANCH   1  25
TORSDOF 16
