REMARK VINA RESULT:    -4.985      1.864      2.451
REMARK INTER + INTRA:         -10.441
REMARK INTER:                  -8.628
REMARK INTRA:                  -1.813
REMARK UNBOUND:                -1.813
REMARK  Name = lig_assembled_40.pdb
REMARK  17 active torsions:
REMARK  status: ('A' for Active; 'I' for Inactive)
REMARK    1  A    between atoms: _2  and  _9
REMARK    2  A    between atoms: _4  and  _19
REMARK    3  A    between atoms: _6  and  _7
REMARK    4  A    between atoms: _6  and  _19
REMARK    5  A    between atoms: _12  and  _13
REMARK    6  A    between atoms: _15  and  _35
REMARK    7  A    between atoms: _17  and  _23
REMARK    8  A    between atoms: _18  and  _22
REMARK    9  A    between atoms: _22  and  _23
REMARK   10  A    between atoms: _25  and  _26
REMARK   11  A    between atoms: _27  and  _28
REMARK   12  A    between atoms: _29  and  _31
REMARK   13  A    between atoms: _31  and  _32
REMARK   14  A    between atoms: _31  and  _33
REMARK   15  A    between atoms: _33  and  _34
REMARK   16  A    between atoms: _33  and  _35
REMARK   17  A    between atoms: _36  and  _38
REMARK                            x       y       z     vdW  Elec       q    Type
REMARK                         _______ _______ _______ _____ _____    ______ ____
ROOT
ATOM      1  C   UNL     1      -3.185  11.838  24.827  0.00  0.00    +0.163 C 
ENDROOT
BRANCH   1   2
ATOM      2  O   UNL     1      -1.990  12.590  24.555  0.00  0.00    -0.388 OA
ATOM      3  H   UNL     1      -1.815  12.582  23.611  0.00  0.00    +0.210 HD
ENDBRANCH   1   2
BRANCH   1   4
ATOM      4  C   UNL     1      -4.258  12.174  23.796  0.00  0.00    +0.141 C 
BRANCH   4   7
ATOM      5  C   UNL     1      -4.199  10.045  22.542  0.00  0.00    +0.401 C 
ATOM      6  O   UNL     1      -2.993  10.116  22.293  0.00  0.00    -0.226 OA
ATOM      7  N   UNL     1      -4.873  10.965  23.233  0.00  0.00    -0.279 N 
ATOM      8  H   UNL     1      -5.863  10.823  23.378  0.00  0.00    +0.152 HD
BRANCH   5   9
ATOM      9  O   UNL     1      -4.941   8.919  22.068  0.00  0.00    -0.444 OA
BRANCH   9  10
ATOM     10  C   UNL     1      -6.057   9.372  21.297  0.00  0.00    +0.292 C 
BRANCH  10  12
ATOM     11  N   UNL     1      -4.987   8.858  19.126  0.00  0.00    -0.131 NA
ATOM     12  C   UNL     1      -5.624   9.749  19.939  0.00  0.00    +0.121 A 
ATOM     13  C   UNL     1      -5.770  10.942  19.272  0.00  0.00    +0.143 A 
ATOM     14  N   UNL     1      -5.228  10.724  18.025  0.00  0.00    -0.220 N 
ATOM     15  N   UNL     1      -4.740   9.458  17.968  0.00  0.00    -0.060 NA
BRANCH  14  16
ATOM     16  C   UNL     1      -5.186  11.602  16.912  0.00  0.00    +0.067 A 
ATOM     17  C   UNL     1      -6.311  11.786  16.100  0.00  0.00    +0.028 A 
ATOM     18  C   UNL     1      -6.234  12.601  14.967  0.00  0.00    +0.005 A 
ATOM     19  C   UNL     1      -5.037  13.241  14.630  0.00  0.00    -0.050 A 
ATOM     20  C   UNL     1      -3.923  13.085  15.463  0.00  0.00    +0.005 A 
ATOM     21  C   UNL     1      -4.938  14.078  13.389  0.00  0.00    +0.044 C 
ATOM     22  C   UNL     1      -3.993  12.272  16.598  0.00  0.00    +0.028 A 
ENDBRANCH  14  16
ENDBRANCH  10  12
ENDBRANCH   9  10
ENDBRANCH   5   9
ENDBRANCH   4   7
ENDBRANCH   1   4
BRANCH   1  23
ATOM     23  C   UNL     1      -3.716  12.141  26.238  0.00  0.00    +0.175 C 
BRANCH  23  24
ATOM     24  C   UNL     1      -3.639  10.914  27.160  0.00  0.00    +0.176 C 
ATOM     25  O   UNL     1      -4.098   9.759  26.405  0.00  0.00    -0.332 OA
ATOM     26  C   UNL     1      -3.995   8.470  27.095  0.00  0.00    +0.277 C 
ATOM     27  C   UNL     1      -4.724   8.527  28.460  0.00  0.00    +0.110 C 
ATOM     28  C   UNL     1      -4.292   9.757  29.286  0.00  0.00    +0.143 C 
ATOM     29  C   UNL     1      -4.436  11.043  28.471  0.00  0.00    +0.133 C 
BRANCH  29  30
ATOM     30  N   UNL     1      -3.940  12.197  29.237  0.00  0.00    -0.308 N 
ATOM     31  H   UNL     1      -2.948  12.249  29.421  0.00  0.00    +0.149 HD
ATOM     32  C   UNL     1      -4.715  13.179  29.705  0.00  0.00    +0.210 C 
ATOM     33  C   UNL     1      -6.225  13.056  29.431  0.00  0.00    +0.109 C 
ATOM     34  O   UNL     1      -4.269  14.141  30.331  0.00  0.00    -0.276 OA
ENDBRANCH  29  30
BRANCH  26  35
ATOM     35  C   UNL     1      -2.518   8.083  27.315  0.00  0.00    +0.414 C 
ATOM     36  O   UNL     1      -1.681   8.311  26.442  0.00  0.00    -0.240 OA
ATOM     37  O   UNL     1      -2.163   7.545  28.364  0.00  0.00    -0.240 OA
ENDBRANCH  26  35
BRANCH  28  38
ATOM     38  O   UNL     1      -5.094   9.853  30.463  0.00  0.00    -0.390 OA
ATOM     39  H   UNL     1      -5.458   8.990  30.674  0.00  0.00    +0.210 HD
ENDBRANCH  28  38
BRANCH  26  40
ATOM     40  O   UNL     1      -4.645   7.467  26.272  0.00  0.00    -0.343 OA
ATOM     41  C   UNL     1      -5.785   7.943  25.512  0.00  0.00    +0.198 C 
ENDBRANCH  26  40
ENDBRANCH  23  24
BRANCH  23  42
ATOM     42  O   UNL     1      -5.072  12.624  26.166  0.00  0.00    -0.387 OA
ATOM     43  H   UNL     1      -5.129  13.483  26.591  0.00  0.00    +0.210 HD
ENDBRANCH  23  42
ENDBRANCH   1  23
TORSDOF 14
