REMARK VINA RESULT:    -4.295      2.831      5.583
REMARK INTER + INTRA:         -11.738
REMARK INTER:                  -9.558
REMARK INTRA:                  -2.180
REMARK UNBOUND:                -3.049
REMARK  Name = lig_assembled_45.pdb
REMARK  24 active torsions:
REMARK  status: ('A' for Active; 'I' for Inactive)
REMARK    1  A    between atoms: _2  and  _10
REMARK    2  A    between atoms: _3  and  _12
REMARK    3  A    between atoms: _3  and  _13
REMARK    4  A    between atoms: _3  and  _14
REMARK    5  A    between atoms: _3  and  _16
REMARK    6  A    between atoms: _5  and  _21
REMARK    7  A    between atoms: _6  and  _16
REMARK    8  A    between atoms: _7  and  _8
REMARK    9  A    between atoms: _7  and  _21
REMARK   10  A    between atoms: _10  and  _11
REMARK   11  A    between atoms: _11  and  _12
REMARK   12  A    between atoms: _14  and  _15
REMARK   13  A    between atoms: _17  and  _37
REMARK   14  A    between atoms: _19  and  _25
REMARK   15  A    between atoms: _20  and  _24
REMARK   16  A    between atoms: _24  and  _25
REMARK   17  A    between atoms: _27  and  _28
REMARK   18  A    between atoms: _29  and  _30
REMARK   19  A    between atoms: _31  and  _33
REMARK   20  A    between atoms: _33  and  _34
REMARK   21  A    between atoms: _33  and  _35
REMARK   22  A    between atoms: _35  and  _36
REMARK   23  A    between atoms: _35  and  _37
REMARK   24  A    between atoms: _38  and  _40
REMARK                            x       y       z     vdW  Elec       q    Type
REMARK                         _______ _______ _______ _____ _____    ______ ____
ROOT
ATOM      1  C   UNL     1      -4.684  11.461  21.035  0.00  0.00    +0.163 C 
ENDROOT
BRANCH   1   2
ATOM      2  O   UNL     1      -5.020  10.069  20.911  0.00  0.00    -0.388 OA
ATOM      3  H   UNL     1      -4.541   9.564  21.573  0.00  0.00    +0.210 HD
ENDBRANCH   1   2
BRANCH   1   4
ATOM      4  C   UNL     1      -3.359  11.642  21.795  0.00  0.00    +0.175 C 
BRANCH   4   5
ATOM      5  C   UNL     1      -3.582  11.869  23.297  0.00  0.00    +0.176 C 
ATOM      6  O   UNL     1      -4.050  10.620  23.874  0.00  0.00    -0.332 OA
ATOM      7  C   UNL     1      -4.217  10.617  25.331  0.00  0.00    +0.277 C 
ATOM      8  C   UNL     1      -5.143  11.776  25.771  0.00  0.00    +0.110 C 
ATOM      9  C   UNL     1      -4.703  13.122  25.157  0.00  0.00    +0.143 C 
ATOM     10  C   UNL     1      -4.558  13.010  23.639  0.00  0.00    +0.133 C 
BRANCH  10  11
ATOM     11  N   UNL     1      -4.055  14.273  23.075  0.00  0.00    -0.308 N 
ATOM     12  H   UNL     1      -3.095  14.524  23.264  0.00  0.00    +0.149 HD
ATOM     13  C   UNL     1      -4.785  15.109  22.331  0.00  0.00    +0.210 C 
ATOM     14  C   UNL     1      -6.252  14.710  22.084  0.00  0.00    +0.109 C 
ATOM     15  O   UNL     1      -4.332  16.152  21.860  0.00  0.00    -0.276 OA
ENDBRANCH  10  11
BRANCH   7  16
ATOM     16  C   UNL     1      -2.852  10.750  26.038  0.00  0.00    +0.414 C 
ATOM     17  O   UNL     1      -1.848  10.233  25.550  0.00  0.00    -0.240 OA
ATOM     18  O   UNL     1      -2.755  11.375  27.095  0.00  0.00    -0.240 OA
ENDBRANCH   7  16
BRANCH   9  19
ATOM     19  O   UNL     1      -5.667  14.130  25.464  0.00  0.00    -0.390 OA
ATOM     20  H   UNL     1      -6.399  14.073  24.846  0.00  0.00    +0.210 HD
ENDBRANCH   9  19
BRANCH   7  21
ATOM     21  O   UNL     1      -4.842   9.363  25.709  0.00  0.00    -0.343 OA
ATOM     22  C   UNL     1      -5.118   8.460  24.608  0.00  0.00    +0.198 C 
ENDBRANCH   7  21
ENDBRANCH   4   5
BRANCH   4  23
ATOM     23  O   UNL     1      -2.610  12.737  21.232  0.00  0.00    -0.387 OA
ATOM     24  H   UNL     1      -3.215  13.380  20.855  0.00  0.00    +0.210 HD
ENDBRANCH   4  23
ENDBRANCH   1   4
BRANCH   1  25
ATOM     25  C   UNL     1      -4.569  12.094  19.652  0.00  0.00    +0.141 C 
BRANCH  25  28
ATOM     26  C   UNL     1      -5.232  11.289  17.412  0.00  0.00    +0.401 C 
ATOM     27  O   UNL     1      -5.817  12.330  17.107  0.00  0.00    -0.226 OA
ATOM     28  N   UNL     1      -4.626  11.089  18.583  0.00  0.00    -0.279 N 
ATOM     29  H   UNL     1      -4.181  10.197  18.744  0.00  0.00    +0.152 HD
BRANCH  26  30
ATOM     30  O   UNL     1      -5.192  10.214  16.470  0.00  0.00    -0.444 OA
BRANCH  30  31
ATOM     31  C   UNL     1      -3.872   9.664  16.428  0.00  0.00    +0.292 C 
BRANCH  31  33
ATOM     32  N   UNL     1      -2.049   9.374  14.771  0.00  0.00    -0.131 NA
ATOM     33  C   UNL     1      -3.355   9.681  15.047  0.00  0.00    +0.120 A 
ATOM     34  C   UNL     1      -4.004   9.982  13.871  0.00  0.00    +0.137 A 
ATOM     35  N   UNL     1      -3.033   9.834  12.928  0.00  0.00    -0.251 N 
ATOM     36  N   UNL     1      -1.863   9.477  13.462  0.00  0.00    -0.065 NA
BRANCH  35  37
ATOM     37  C   UNL     1      -3.158  10.045  11.500  0.00  0.00    +0.150 C 
BRANCH  37  38
ATOM     38  C   UNL     1      -3.428  11.499  11.137  0.00  0.00    +0.074 C 
BRANCH  38  39
ATOM     39  C   UNL     1      -2.223  12.333  10.681  0.00  0.00    +0.134 C 
BRANCH  39  40
ATOM     40  N   UNL     1      -1.898  13.644  11.470  0.00  0.00    +0.241 N 
ATOM     41  C   UNL     1      -2.503  13.536  12.880  0.00  0.00    +0.192 C 
BRANCH  40  42
ATOM     42  C   UNL     1      -2.627  14.800  10.706  0.00  0.00    +0.129 C 
ATOM     43  C   UNL     1      -3.616  15.582  11.563  0.00  0.00    +0.060 C 
ENDBRANCH  40  42
BRANCH  40  44
ATOM     44  C   UNL     1      -0.398  13.969  11.595  0.00  0.00    +0.129 C 
ATOM     45  C   UNL     1      -0.073  15.023  12.640  0.00  0.00    +0.060 C 
ENDBRANCH  40  44
ENDBRANCH  39  40
ENDBRANCH  38  39
ENDBRANCH  37  38
ENDBRANCH  35  37
ENDBRANCH  31  33
ENDBRANCH  30  31
ENDBRANCH  26  30
ENDBRANCH  25  28
ENDBRANCH   1  25
TORSDOF 19
