REMARK VINA RESULT:    -5.358      3.010     10.350
REMARK INTER + INTRA:         -11.086
REMARK INTER:                  -8.719
REMARK INTRA:                  -2.367
REMARK UNBOUND:                -1.813
REMARK  Name = lig_assembled_40.pdb
REMARK  17 active torsions:
REMARK  status: ('A' for Active; 'I' for Inactive)
REMARK    1  A    between atoms: _2  and  _9
REMARK    2  A    between atoms: _4  and  _19
REMARK    3  A    between atoms: _6  and  _7
REMARK    4  A    between atoms: _6  and  _19
REMARK    5  A    between atoms: _12  and  _13
REMARK    6  A    between atoms: _15  and  _35
REMARK    7  A    between atoms: _17  and  _23
REMARK    8  A    between atoms: _18  and  _22
REMARK    9  A    between atoms: _22  and  _23
REMARK   10  A    between atoms: _25  and  _26
REMARK   11  A    between atoms: _27  and  _28
REMARK   12  A    between atoms: _29  and  _31
REMARK   13  A    between atoms: _31  and  _32
REMARK   14  A    between atoms: _31  and  _33
REMARK   15  A    between atoms: _33  and  _34
REMARK   16  A    between atoms: _33  and  _35
REMARK   17  A    between atoms: _36  and  _38
REMARK                            x       y       z     vdW  Elec       q    Type
REMARK                         _______ _______ _______ _____ _____    ______ ____
ROOT
ATOM      1  C   UNL     1      -4.223   9.068  23.902  0.00  0.00    +0.163 C 
ENDROOT
BRANCH   1   2
ATOM      2  O   UNL     1      -3.776   8.412  22.704  0.00  0.00    -0.388 OA
ATOM      3  H   UNL     1      -2.948   8.802  22.414  0.00  0.00    +0.210 HD
ENDBRANCH   1   2
BRANCH   1   4
ATOM      4  C   UNL     1      -4.260   8.074  25.058  0.00  0.00    +0.141 C 
BRANCH   4   7
ATOM      5  C   UNL     1      -2.487   8.262  26.770  0.00  0.00    +0.401 C 
ATOM      6  O   UNL     1      -1.769   7.402  26.256  0.00  0.00    -0.226 OA
ATOM      7  N   UNL     1      -3.671   8.635  26.280  0.00  0.00    -0.279 N 
ATOM      8  H   UNL     1      -4.192   9.343  26.779  0.00  0.00    +0.152 HD
BRANCH   5   9
ATOM      9  O   UNL     1      -2.047   8.911  27.966  0.00  0.00    -0.444 OA
BRANCH   9  10
ATOM     10  C   UNL     1      -2.862   8.491  29.064  0.00  0.00    +0.292 C 
BRANCH  10  12
ATOM     11  N   UNL     1      -2.870   9.342  31.388  0.00  0.00    -0.131 NA
ATOM     12  C   UNL     1      -2.996   9.580  30.050  0.00  0.00    +0.121 A 
ATOM     13  C   UNL     1      -3.233  10.919  29.852  0.00  0.00    +0.143 A 
ATOM     14  N   UNL     1      -3.213  11.476  31.111  0.00  0.00    -0.220 N 
ATOM     15  N   UNL     1      -3.012  10.496  32.027  0.00  0.00    -0.060 NA
BRANCH  14  16
ATOM     16  C   UNL     1      -3.328  12.842  31.475  0.00  0.00    +0.067 A 
ATOM     17  C   UNL     1      -3.294  13.231  32.819  0.00  0.00    +0.028 A 
ATOM     18  C   UNL     1      -3.479  14.573  33.167  0.00  0.00    +0.005 A 
ATOM     19  C   UNL     1      -3.699  15.540  32.181  0.00  0.00    -0.050 A 
ATOM     20  C   UNL     1      -3.696  15.155  30.836  0.00  0.00    +0.005 A 
ATOM     21  C   UNL     1      -3.943  16.973  32.554  0.00  0.00    +0.044 C 
ATOM     22  C   UNL     1      -3.512  13.815  30.481  0.00  0.00    +0.028 A 
ENDBRANCH  14  16
ENDBRANCH  10  12
ENDBRANCH   9  10
ENDBRANCH   5   9
ENDBRANCH   4   7
ENDBRANCH   1   4
BRANCH   1  23
ATOM     23  C   UNL     1      -5.621   9.679  23.705  0.00  0.00    +0.175 C 
BRANCH  23  24
ATOM     24  C   UNL     1      -5.566  11.015  22.950  0.00  0.00    +0.176 C 
ATOM     25  O   UNL     1      -5.239  10.731  21.562  0.00  0.00    -0.332 OA
ATOM     26  C   UNL     1      -5.247  11.887  20.660  0.00  0.00    +0.277 C 
ATOM     27  C   UNL     1      -4.317  13.001  21.199  0.00  0.00    +0.110 C 
ATOM     28  C   UNL     1      -4.606  13.316  22.682  0.00  0.00    +0.143 C 
ATOM     29  C   UNL     1      -4.576  12.043  23.529  0.00  0.00    +0.133 C 
BRANCH  29  30
ATOM     30  N   UNL     1      -4.938  12.343  24.923  0.00  0.00    -0.308 N 
ATOM     31  H   UNL     1      -5.901  12.576  25.120  0.00  0.00    +0.149 HD
ATOM     32  C   UNL     1      -4.078  12.327  25.945  0.00  0.00    +0.210 C 
ATOM     33  C   UNL     1      -2.612  11.994  25.607  0.00  0.00    +0.109 C 
ATOM     34  O   UNL     1      -4.413  12.569  27.105  0.00  0.00    -0.276 OA
ENDBRANCH  29  30
BRANCH  26  35
ATOM     35  C   UNL     1      -6.676  12.443  20.496  0.00  0.00    +0.414 C 
ATOM     36  O   UNL     1      -7.647  11.691  20.573  0.00  0.00    -0.240 OA
ATOM     37  O   UNL     1      -6.859  13.643  20.286  0.00  0.00    -0.240 OA
ENDBRANCH  26  35
BRANCH  28  38
ATOM     38  O   UNL     1      -3.631  14.234  23.179  0.00  0.00    -0.390 OA
ATOM     39  H   UNL     1      -3.876  14.514  24.064  0.00  0.00    +0.210 HD
ENDBRANCH  28  38
BRANCH  26  40
ATOM     40  O   UNL     1      -4.741  11.453  19.371  0.00  0.00    -0.343 OA
ATOM     41  C   UNL     1      -4.929  10.045  19.081  0.00  0.00    +0.198 C 
ENDBRANCH  26  40
ENDBRANCH  23  24
BRANCH  23  42
ATOM     42  O   UNL     1      -6.270   9.855  24.980  0.00  0.00    -0.387 OA
ATOM     43  H   UNL     1      -6.632  10.743  25.035  0.00  0.00    +0.210 HD
ENDBRANCH  23  42
ENDBRANCH   1  23
TORSDOF 14
