REMARK VINA RESULT:    -5.192      4.836     10.744
REMARK INTER + INTRA:         -12.158
REMARK INTER:                  -9.692
REMARK INTRA:                  -2.466
REMARK UNBOUND:                -2.869
REMARK  Name = lig_assembled_71.pdb
REMARK  17 active torsions:
REMARK  status: ('A' for Active; 'I' for Inactive)
REMARK    1  A    between atoms: _2  and  _12
REMARK    2  A    between atoms: _7  and  _22
REMARK    3  A    between atoms: _9  and  _10
REMARK    4  A    between atoms: _9  and  _22
REMARK    5  A    between atoms: _12  and  _13
REMARK    6  A    between atoms: _18  and  _38
REMARK    7  A    between atoms: _20  and  _26
REMARK    8  A    between atoms: _21  and  _25
REMARK    9  A    between atoms: _25  and  _26
REMARK   10  A    between atoms: _28  and  _29
REMARK   11  A    between atoms: _30  and  _31
REMARK   12  A    between atoms: _32  and  _34
REMARK   13  A    between atoms: _34  and  _35
REMARK   14  A    between atoms: _34  and  _36
REMARK   15  A    between atoms: _36  and  _37
REMARK   16  A    between atoms: _36  and  _38
REMARK   17  A    between atoms: _39  and  _41
REMARK                            x       y       z     vdW  Elec       q    Type
REMARK                         _______ _______ _______ _____ _____    ______ ____
ROOT
ATOM      1  C   UNL     1      -6.371   9.517  23.058  0.00  0.00    +0.163 C 
ENDROOT
BRANCH   1   2
ATOM      2  O   UNL     1      -7.257   9.568  24.188  0.00  0.00    -0.388 OA
ATOM      3  H   UNL     1      -8.144   9.326  23.911  0.00  0.00    +0.210 HD
ENDBRANCH   1   2
BRANCH   1   4
ATOM      4  C   UNL     1      -7.098   8.935  21.850  0.00  0.00    +0.141 C 
BRANCH   4   7
ATOM      5  C   UNL     1      -6.128   9.014  19.579  0.00  0.00    +0.401 C 
ATOM      6  O   UNL     1      -5.813   7.821  19.570  0.00  0.00    -0.226 OA
ATOM      7  N   UNL     1      -6.727   9.619  20.606  0.00  0.00    -0.279 N 
ATOM      8  H   UNL     1      -6.937  10.604  20.522  0.00  0.00    +0.152 HD
BRANCH   5   9
ATOM      9  O   UNL     1      -5.840   9.817  18.432  0.00  0.00    -0.444 OA
BRANCH   9  10
ATOM     10  C   UNL     1      -4.955   9.106  17.561  0.00  0.00    +0.292 C 
BRANCH  10  12
ATOM     11  N   UNL     1      -4.044  11.165  16.515  0.00  0.00    -0.131 NA
ATOM     12  C   UNL     1      -4.623   9.930  16.383  0.00  0.00    +0.120 A 
ATOM     13  C   UNL     1      -4.800   9.661  15.047  0.00  0.00    +0.137 A 
ATOM     14  N   UNL     1      -4.326  10.773  14.415  0.00  0.00    -0.242 N 
ATOM     15  N   UNL     1      -3.858  11.670  15.302  0.00  0.00    -0.065 NA
BRANCH  14  16
ATOM     16  C   UNL     1      -4.176  11.012  12.993  0.00  0.00    +0.241 C 
BRANCH  16  17
ATOM     17  C   UNL     1      -2.871  11.695  12.676  0.00  0.00    +0.241 C 
ATOM     18  O   UNL     1      -1.861  11.026  12.469  0.00  0.00    -0.273 OA
ATOM     19  N   UNL     1      -2.920  13.072  12.723  0.00  0.00    -0.253 N 
ATOM     20  H   UNL     1      -3.714  13.570  13.094  0.00  0.00    +0.158 HD
ATOM     21  C   UNL     1      -1.836  13.896  12.441  0.00  0.00    +0.221 A 
ATOM     22  N   UNL     1      -1.975  15.177  12.815  0.00  0.00    -0.223 NA
ATOM     23  C   UNL     1      -0.903  15.974  12.617  0.00  0.00    +0.116 A 
ATOM     24  C   UNL     1       0.270  15.549  12.042  0.00  0.00    +0.039 A 
ATOM     25  C   UNL     1       0.289  14.235  11.656  0.00  0.00    +0.116 A 
ATOM     26  N   UNL     1      -0.746  13.402  11.846  0.00  0.00    -0.223 NA
ENDBRANCH  16  17
ENDBRANCH  14  16
ENDBRANCH  10  12
ENDBRANCH   9  10
ENDBRANCH   5   9
ENDBRANCH   4   7
ENDBRANCH   1   4
BRANCH   1  27
ATOM     27  C   UNL     1      -5.129   8.665  23.371  0.00  0.00    +0.175 C 
BRANCH  27  28
ATOM     28  C   UNL     1      -4.046   9.468  24.106  0.00  0.00    +0.176 C 
ATOM     29  O   UNL     1      -4.388   9.491  25.519  0.00  0.00    -0.332 OA
ATOM     30  C   UNL     1      -3.405  10.130  26.399  0.00  0.00    +0.277 C 
ATOM     31  C   UNL     1      -3.095  11.567  25.911  0.00  0.00    +0.110 C 
ATOM     32  C   UNL     1      -2.757  11.597  24.406  0.00  0.00    +0.143 C 
ATOM     33  C   UNL     1      -3.844  10.904  23.585  0.00  0.00    +0.133 C 
BRANCH  33  34
ATOM     34  N   UNL     1      -3.469  10.862  22.163  0.00  0.00    -0.308 N 
ATOM     35  H   UNL     1      -2.762  10.198  21.881  0.00  0.00    +0.149 HD
ATOM     36  C   UNL     1      -4.001  11.646  21.221  0.00  0.00    +0.210 C 
ATOM     37  C   UNL     1      -5.057  12.666  21.687  0.00  0.00    +0.109 C 
ATOM     38  O   UNL     1      -3.677  11.579  20.035  0.00  0.00    -0.276 OA
ENDBRANCH  33  34
BRANCH  30  39
ATOM     39  C   UNL     1      -2.099   9.309  26.446  0.00  0.00    +0.414 C 
ATOM     40  O   UNL     1      -2.140   8.080  26.472  0.00  0.00    -0.240 OA
ATOM     41  O   UNL     1      -1.006   9.876  26.459  0.00  0.00    -0.240 OA
ENDBRANCH  30  39
BRANCH  30  42
ATOM     42  O   UNL     1      -3.979  10.212  27.729  0.00  0.00    -0.343 OA
ATOM     43  C   UNL     1      -4.109  11.555  28.258  0.00  0.00    +0.198 C 
ENDBRANCH  30  42
BRANCH  32  44
ATOM     44  O   UNL     1      -2.628  12.951  23.969  0.00  0.00    -0.390 OA
ATOM     45  H   UNL     1      -2.035  12.989  23.214  0.00  0.00    +0.210 HD
ENDBRANCH  32  44
ENDBRANCH  27  28
BRANCH  27  46
ATOM     46  O   UNL     1      -4.593   8.104  22.156  0.00  0.00    -0.387 OA
ATOM     47  H   UNL     1      -3.800   8.584  21.904  0.00  0.00    +0.210 HD
ENDBRANCH  27  46
ENDBRANCH   1  27
TORSDOF 15
