REMARK VINA RESULT:    -3.770      5.055      9.610
REMARK INTER + INTRA:         -10.675
REMARK INTER:                  -6.004
REMARK INTRA:                  -4.671
REMARK UNBOUND:                -3.049
REMARK  Name = lig_assembled_45.pdb
REMARK  24 active torsions:
REMARK  status: ('A' for Active; 'I' for Inactive)
REMARK    1  A    between atoms: _2  and  _10
REMARK    2  A    between atoms: _3  and  _12
REMARK    3  A    between atoms: _3  and  _13
REMARK    4  A    between atoms: _3  and  _14
REMARK    5  A    between atoms: _3  and  _16
REMARK    6  A    between atoms: _5  and  _21
REMARK    7  A    between atoms: _6  and  _16
REMARK    8  A    between atoms: _7  and  _8
REMARK    9  A    between atoms: _7  and  _21
REMARK   10  A    between atoms: _10  and  _11
REMARK   11  A    between atoms: _11  and  _12
REMARK   12  A    between atoms: _14  and  _15
REMARK   13  A    between atoms: _17  and  _37
REMARK   14  A    between atoms: _19  and  _25
REMARK   15  A    between atoms: _20  and  _24
REMARK   16  A    between atoms: _24  and  _25
REMARK   17  A    between atoms: _27  and  _28
REMARK   18  A    between atoms: _29  and  _30
REMARK   19  A    between atoms: _31  and  _33
REMARK   20  A    between atoms: _33  and  _34
REMARK   21  A    between atoms: _33  and  _35
REMARK   22  A    between atoms: _35  and  _36
REMARK   23  A    between atoms: _35  and  _37
REMARK   24  A    between atoms: _38  and  _40
REMARK                            x       y       z     vdW  Elec       q    Type
REMARK                         _______ _______ _______ _____ _____    ______ ____
ROOT
ATOM      1  C   UNL     1      -7.960  11.711  25.117  0.00  0.00    +0.163 C 
ENDROOT
BRANCH   1   2
ATOM      2  O   UNL     1      -8.286  11.001  26.323  0.00  0.00    -0.388 OA
ATOM      3  H   UNL     1      -8.823  10.234  26.108  0.00  0.00    +0.210 HD
ENDBRANCH   1   2
BRANCH   1   4
ATOM      4  C   UNL     1      -6.525  12.262  25.174  0.00  0.00    +0.175 C 
BRANCH   4   5
ATOM      5  C   UNL     1      -5.765  11.768  26.414  0.00  0.00    +0.176 C 
ATOM      6  O   UNL     1      -6.137  12.618  27.534  0.00  0.00    -0.332 OA
ATOM      7  C   UNL     1      -5.586  12.229  28.835  0.00  0.00    +0.277 C 
ATOM      8  C   UNL     1      -4.044  12.112  28.757  0.00  0.00    +0.110 C 
ATOM      9  C   UNL     1      -3.599  11.243  27.562  0.00  0.00    +0.143 C 
ATOM     10  C   UNL     1      -4.233  11.734  26.260  0.00  0.00    +0.133 C 
BRANCH  10  11
ATOM     11  N   UNL     1      -3.871  10.846  25.144  0.00  0.00    -0.308 N 
ATOM     12  H   UNL     1      -4.067   9.860  25.243  0.00  0.00    +0.149 HD
ATOM     13  C   UNL     1      -3.302  11.258  24.008  0.00  0.00    +0.210 C 
ATOM     14  C   UNL     1      -2.993  12.763  23.899  0.00  0.00    +0.109 C 
ATOM     15  O   UNL     1      -3.023  10.494  23.084  0.00  0.00    -0.276 OA
ENDBRANCH  10  11
BRANCH   7  16
ATOM     16  C   UNL     1      -6.182  10.885  29.302  0.00  0.00    +0.414 C 
ATOM     17  O   UNL     1      -7.391  10.678  29.209  0.00  0.00    -0.240 OA
ATOM     18  O   UNL     1      -5.455  10.009  29.772  0.00  0.00    -0.240 OA
ENDBRANCH   7  16
BRANCH   9  19
ATOM     19  O   UNL     1      -2.177  11.285  27.438  0.00  0.00    -0.390 OA
ATOM     20  H   UNL     1      -1.916  12.108  27.017  0.00  0.00    +0.210 HD
ENDBRANCH   9  19
BRANCH   7  21
ATOM     21  O   UNL     1      -5.917  13.269  29.792  0.00  0.00    -0.343 OA
ATOM     22  C   UNL     1      -6.169  14.575  29.214  0.00  0.00    +0.198 C 
ENDBRANCH   7  21
ENDBRANCH   4   5
BRANCH   4  23
ATOM     23  O   UNL     1      -6.544  13.703  25.144  0.00  0.00    -0.387 OA
ATOM     24  H   UNL     1      -5.887  14.045  25.755  0.00  0.00    +0.210 HD
ENDBRANCH   4  23
ENDBRANCH   1   4
BRANCH   1  25
ATOM     25  C   UNL     1      -8.103  10.786  23.912  0.00  0.00    +0.141 C 
BRANCH  25  28
ATOM     26  C   UNL     1      -6.622   8.836  24.244  0.00  0.00    +0.401 C 
ATOM     27  O   UNL     1      -7.375   8.282  25.048  0.00  0.00    -0.226 OA
ATOM     28  N   UNL     1      -6.880  10.011  23.668  0.00  0.00    -0.279 N 
ATOM     29  H   UNL     1      -6.196  10.390  23.029  0.00  0.00    +0.152 HD
BRANCH  26  30
ATOM     30  O   UNL     1      -5.389   8.201  23.895  0.00  0.00    -0.444 OA
BRANCH  30  31
ATOM     31  C   UNL     1      -5.149   7.105  24.782  0.00  0.00    +0.292 C 
BRANCH  31  33
ATOM     32  N   UNL     1      -2.914   8.014  25.355  0.00  0.00    -0.131 NA
ATOM     33  C   UNL     1      -4.099   7.455  25.755  0.00  0.00    +0.120 A 
ATOM     34  C   UNL     1      -4.086   7.307  27.124  0.00  0.00    +0.137 A 
ATOM     35  N   UNL     1      -2.868   7.798  27.483  0.00  0.00    -0.251 N 
ATOM     36  N   UNL     1      -2.163   8.215  26.430  0.00  0.00    -0.065 NA
BRANCH  35  37
ATOM     37  C   UNL     1      -2.311   7.871  28.819  0.00  0.00    +0.150 C 
BRANCH  37  38
ATOM     38  C   UNL     1      -3.227   7.269  29.876  0.00  0.00    +0.074 C 
BRANCH  38  39
ATOM     39  C   UNL     1      -2.774   7.396  31.337  0.00  0.00    +0.134 C 
BRANCH  39  40
ATOM     40  N   UNL     1      -3.873   7.624  32.428  0.00  0.00    +0.241 N 
ATOM     41  C   UNL     1      -3.549   6.743  33.647  0.00  0.00    +0.192 C 
BRANCH  40  42
ATOM     42  C   UNL     1      -5.216   7.124  31.799  0.00  0.00    +0.129 C 
ATOM     43  C   UNL     1      -6.456   7.813  32.359  0.00  0.00    +0.060 C 
ENDBRANCH  40  42
BRANCH  40  44
ATOM     44  C   UNL     1      -4.029   9.083  32.894  0.00  0.00    +0.129 C 
ATOM     45  C   UNL     1      -3.001  10.037  32.310  0.00  0.00    +0.060 C 
ENDBRANCH  40  44
ENDBRANCH  39  40
ENDBRANCH  38  39
ENDBRANCH  37  38
ENDBRANCH  35  37
ENDBRANCH  31  33
ENDBRANCH  30  31
ENDBRANCH  26  30
ENDBRANCH  25  28
ENDBRANCH   1  25
TORSDOF 19
