REMARK VINA RESULT:    -4.203      1.970      5.274
REMARK INTER + INTRA:         -11.364
REMARK INTER:                  -8.374
REMARK INTRA:                  -2.990
REMARK UNBOUND:                -3.721
REMARK  Name = lig_assembled_35.pdb
REMARK  19 active torsions:
REMARK  status: ('A' for Active; 'I' for Inactive)
REMARK    1  A    between atoms: _2  and  _9
REMARK    2  A    between atoms: _4  and  _17
REMARK    3  A    between atoms: _5  and  _9
REMARK    4  A    between atoms: _5  and  _11
REMARK    5  A    between atoms: _6  and  _7
REMARK    6  A    between atoms: _6  and  _17
REMARK    7  A    between atoms: _9  and  _10
REMARK    8  A    between atoms: _13  and  _33
REMARK    9  A    between atoms: _15  and  _21
REMARK   10  A    between atoms: _16  and  _20
REMARK   11  A    between atoms: _20  and  _21
REMARK   12  A    between atoms: _23  and  _24
REMARK   13  A    between atoms: _25  and  _26
REMARK   14  A    between atoms: _27  and  _29
REMARK   15  A    between atoms: _29  and  _30
REMARK   16  A    between atoms: _29  and  _31
REMARK   17  A    between atoms: _31  and  _32
REMARK   18  A    between atoms: _31  and  _33
REMARK   19  A    between atoms: _34  and  _36
REMARK                            x       y       z     vdW  Elec       q    Type
REMARK                         _______ _______ _______ _____ _____    ______ ____
ROOT
ATOM      1  C   UNL     1      -4.301   8.887  29.064  0.00  0.00    +0.163 C 
ENDROOT
BRANCH   1   2
ATOM      2  O   UNL     1      -5.223   8.609  30.132  0.00  0.00    -0.388 OA
ATOM      3  H   UNL     1      -5.414   7.668  30.153  0.00  0.00    +0.210 HD
ENDBRANCH   1   2
BRANCH   1   4
ATOM      4  C   UNL     1      -3.020   9.548  29.602  0.00  0.00    +0.175 C 
BRANCH   4   5
ATOM      5  C   UNL     1      -3.304  10.903  30.267  0.00  0.00    +0.176 C 
ATOM      6  O   UNL     1      -4.005  10.650  31.516  0.00  0.00    -0.332 OA
ATOM      7  C   UNL     1      -4.268  11.829  32.345  0.00  0.00    +0.277 C 
ATOM      8  C   UNL     1      -5.024  12.907  31.530  0.00  0.00    +0.110 C 
ATOM      9  C   UNL     1      -4.334  13.187  30.178  0.00  0.00    +0.143 C 
ATOM     10  C   UNL     1      -4.106  11.891  29.400  0.00  0.00    +0.133 C 
BRANCH  10  11
ATOM     11  N   UNL     1      -3.370  12.161  28.154  0.00  0.00    -0.308 N 
ATOM     12  H   UNL     1      -2.401  12.434  28.229  0.00  0.00    +0.149 HD
ATOM     13  C   UNL     1      -3.900  12.067  26.932  0.00  0.00    +0.210 C 
ATOM     14  C   UNL     1      -5.387  11.673  26.853  0.00  0.00    +0.109 C 
ATOM     15  O   UNL     1      -3.256  12.285  25.905  0.00  0.00    -0.276 OA
ENDBRANCH  10  11
BRANCH   7  16
ATOM     16  C   UNL     1      -2.950  12.423  32.886  0.00  0.00    +0.414 C 
ATOM     17  O   UNL     1      -2.972  13.282  33.766  0.00  0.00    -0.240 OA
ATOM     18  O   UNL     1      -1.866  12.042  32.443  0.00  0.00    -0.240 OA
ENDBRANCH   7  16
BRANCH   7  19
ATOM     19  O   UNL     1      -5.110  11.420  33.454  0.00  0.00    -0.343 OA
ATOM     20  C   UNL     1      -4.759  10.146  34.051  0.00  0.00    +0.198 C 
ENDBRANCH   7  19
BRANCH   9  21
ATOM     21  O   UNL     1      -5.142  14.069  29.398  0.00  0.00    -0.390 OA
ATOM     22  H   UNL     1      -5.632  14.654  29.981  0.00  0.00    +0.210 HD
ENDBRANCH   9  21
ENDBRANCH   4   5
BRANCH   4  23
ATOM     23  O   UNL     1      -2.060   9.708  28.538  0.00  0.00    -0.387 OA
ATOM     24  H   UNL     1      -1.880  10.642  28.407  0.00  0.00    +0.210 HD
ENDBRANCH   4  23
ENDBRANCH   1   4
BRANCH   1  25
ATOM     25  C   UNL     1      -3.942   7.596  28.336  0.00  0.00    +0.141 C 
BRANCH  25  28
ATOM     26  C   UNL     1      -3.200   7.776  25.986  0.00  0.00    +0.401 C 
ATOM     27  O   UNL     1      -1.999   7.781  26.267  0.00  0.00    -0.226 OA
ATOM     28  N   UNL     1      -4.177   7.699  26.891  0.00  0.00    -0.279 N 
ATOM     29  H   UNL     1      -5.133   7.712  26.563  0.00  0.00    +0.152 HD
BRANCH  26  30
ATOM     30  O   UNL     1      -3.593   7.862  24.614  0.00  0.00    -0.444 OA
BRANCH  30  31
ATOM     31  C   UNL     1      -4.710   8.747  24.491  0.00  0.00    +0.292 C 
BRANCH  31  33
ATOM     32  N   UNL     1      -3.156   9.942  22.981  0.00  0.00    -0.131 NA
ATOM     33  C   UNL     1      -4.368   9.884  23.615  0.00  0.00    +0.120 A 
ATOM     34  C   UNL     1      -5.101  11.003  23.286  0.00  0.00    +0.138 A 
ATOM     35  N   UNL     1      -4.286  11.693  22.437  0.00  0.00    -0.238 N 
ATOM     36  N   UNL     1      -3.110  11.062  22.274  0.00  0.00    -0.065 NA
BRANCH  35  37
ATOM     37  C   UNL     1      -4.510  12.957  21.761  0.00  0.00    +0.214 C 
ATOM     38  C   UNL     1      -6.001  13.212  21.560  0.00  0.00    +0.045 C 
BRANCH  37  39
ATOM     39  C   UNL     1      -3.827  14.100  22.484  0.00  0.00    +0.329 C 
ATOM     40  O   UNL     1      -4.100  15.282  22.322  0.00  0.00    -0.249 OA
BRANCH  39  41
ATOM     41  O   UNL     1      -2.840  13.718  23.331  0.00  0.00    -0.479 OA
ATOM     42  H   UNL     1      -2.010  14.234  23.278  0.00  0.00    +0.295 HD
ENDBRANCH  39  41
ENDBRANCH  37  39
ENDBRANCH  35  37
ENDBRANCH  31  33
ENDBRANCH  30  31
ENDBRANCH  26  30
ENDBRANCH  25  28
ENDBRANCH   1  25
TORSDOF 16
