REMARK VINA RESULT:    -4.519      2.298      6.823
REMARK INTER + INTRA:         -11.661
REMARK INTER:                  -8.309
REMARK INTRA:                  -3.352
REMARK UNBOUND:                -3.048
REMARK  Name = lig_assembled_50.pdb
REMARK  20 active torsions:
REMARK  status: ('A' for Active; 'I' for Inactive)
REMARK    1  A    between atoms: _2  and  _9
REMARK    2  A    between atoms: _4  and  _17
REMARK    3  A    between atoms: _5  and  _10
REMARK    4  A    between atoms: _5  and  _11
REMARK    5  A    between atoms: _6  and  _7
REMARK    6  A    between atoms: _6  and  _17
REMARK    7  A    between atoms: _9  and  _10
REMARK    8  A    between atoms: _10  and  _12
REMARK    9  A    between atoms: _13  and  _33
REMARK   10  A    between atoms: _15  and  _21
REMARK   11  A    between atoms: _16  and  _20
REMARK   12  A    between atoms: _20  and  _21
REMARK   13  A    between atoms: _23  and  _24
REMARK   14  A    between atoms: _25  and  _26
REMARK   15  A    between atoms: _27  and  _29
REMARK   16  A    between atoms: _29  and  _30
REMARK   17  A    between atoms: _29  and  _31
REMARK   18  A    between atoms: _31  and  _32
REMARK   19  A    between atoms: _31  and  _33
REMARK   20  A    between atoms: _34  and  _36
REMARK                            x       y       z     vdW  Elec       q    Type
REMARK                         _______ _______ _______ _____ _____    ______ ____
ROOT
ATOM      1  C   UNL     1      -3.000  11.826  23.772  0.00  0.00    +0.163 C 
ENDROOT
BRANCH   1   2
ATOM      2  O   UNL     1      -2.085  11.662  24.868  0.00  0.00    -0.388 OA
ATOM      3  H   UNL     1      -1.232  11.374  24.534  0.00  0.00    +0.210 HD
ENDBRANCH   1   2
BRANCH   1   4
ATOM      4  C   UNL     1      -3.876  10.574  23.595  0.00  0.00    +0.175 C 
BRANCH   4   5
ATOM      5  C   UNL     1      -4.085   9.823  24.918  0.00  0.00    +0.176 C 
ATOM      6  O   UNL     1      -2.955   8.927  25.106  0.00  0.00    -0.332 OA
ATOM      7  C   UNL     1      -2.929   8.198  26.378  0.00  0.00    +0.277 C 
ATOM      8  C   UNL     1      -4.252   7.421  26.584  0.00  0.00    +0.110 C 
ATOM      9  C   UNL     1      -5.483   8.325  26.363  0.00  0.00    +0.143 C 
ATOM     10  C   UNL     1      -5.406   9.037  25.011  0.00  0.00    +0.133 C 
BRANCH  10  11
ATOM     11  N   UNL     1      -6.540   9.961  24.850  0.00  0.00    -0.308 N 
ATOM     12  H   UNL     1      -6.650  10.696  25.534  0.00  0.00    +0.149 HD
ATOM     13  C   UNL     1      -7.432   9.891  23.858  0.00  0.00    +0.210 C 
ATOM     14  C   UNL     1      -7.251   8.744  22.847  0.00  0.00    +0.109 C 
ATOM     15  O   UNL     1      -8.363  10.688  23.740  0.00  0.00    -0.276 OA
ENDBRANCH  10  11
BRANCH   7  16
ATOM     16  C   UNL     1      -2.710   9.166  27.559  0.00  0.00    +0.414 C 
ATOM     17  O   UNL     1      -3.257   8.958  28.641  0.00  0.00    -0.240 OA
ATOM     18  O   UNL     1      -1.987  10.155  27.430  0.00  0.00    -0.240 OA
ENDBRANCH   7  16
BRANCH   9  19
ATOM     19  O   UNL     1      -6.674   7.538  26.413  0.00  0.00    -0.390 OA
ATOM     20  H   UNL     1      -6.450   6.631  26.631  0.00  0.00    +0.210 HD
ENDBRANCH   9  19
BRANCH   7  21
ATOM     21  O   UNL     1      -1.840   7.240  26.324  0.00  0.00    -0.343 OA
ATOM     22  C   UNL     1      -2.022   6.059  27.145  0.00  0.00    +0.198 C 
ENDBRANCH   7  21
ENDBRANCH   4   5
BRANCH   4  23
ATOM     23  O   UNL     1      -3.295   9.695  22.611  0.00  0.00    -0.387 OA
ATOM     24  H   UNL     1      -3.790   8.874  22.582  0.00  0.00    +0.210 HD
ENDBRANCH   4  23
ENDBRANCH   1   4
BRANCH   1  25
ATOM     25  C   UNL     1      -3.889  13.041  24.012  0.00  0.00    +0.141 C 
BRANCH  25  28
ATOM     26  C   UNL     1      -5.502  13.208  25.877  0.00  0.00    +0.401 C 
ATOM     27  O   UNL     1      -6.494  13.119  25.150  0.00  0.00    -0.226 OA
ATOM     28  N   UNL     1      -4.246  13.187  25.429  0.00  0.00    -0.279 N 
ATOM     29  H   UNL     1      -3.498  13.276  26.102  0.00  0.00    +0.152 HD
BRANCH  26  30
ATOM     30  O   UNL     1      -5.684  13.347  27.288  0.00  0.00    -0.444 OA
BRANCH  30  31
ATOM     31  C   UNL     1      -5.070  12.244  27.960  0.00  0.00    +0.292 C 
BRANCH  31  33
ATOM     32  N   UNL     1      -4.782  13.938  29.747  0.00  0.00    -0.131 NA
ATOM     33  C   UNL     1      -4.603  12.653  29.300  0.00  0.00    +0.120 A 
ATOM     34  C   UNL     1      -3.972  11.918  30.283  0.00  0.00    +0.137 A 
ATOM     35  N   UNL     1      -3.789  12.811  31.290  0.00  0.00    -0.249 N 
ATOM     36  N   UNL     1      -4.291  14.020  30.974  0.00  0.00    -0.065 NA
BRANCH  35  37
ATOM     37  C   UNL     1      -3.147  12.603  32.568  0.00  0.00    +0.178 C 
BRANCH  37  38
ATOM     38  C   UNL     1      -1.831  13.372  32.739  0.00  0.00    +0.161 C 
BRANCH  38  39
ATOM     39  O   UNL     1      -1.297  13.833  31.495  0.00  0.00    -0.388 OA
ATOM     40  H   UNL     1      -0.949  14.739  31.622  0.00  0.00    +0.210 HD
ENDBRANCH  38  39
BRANCH  38  41
ATOM     41  C   UNL     1      -1.928  14.543  33.726  0.00  0.00    +0.189 C 
BRANCH  41  42
ATOM     42  O   UNL     1      -2.755  15.587  33.215  0.00  0.00    -0.392 OA
ATOM     43  H   UNL     1      -2.903  15.419  32.265  0.00  0.00    +0.210 HD
ENDBRANCH  41  42
ENDBRANCH  38  41
ENDBRANCH  37  38
ENDBRANCH  35  37
ENDBRANCH  31  33
ENDBRANCH  30  31
ENDBRANCH  26  30
ENDBRANCH  25  28
ENDBRANCH   1  25
TORSDOF 18
