REMARK VINA RESULT:    -4.610      3.255      5.729
REMARK INTER + INTRA:         -11.352
REMARK INTER:                  -8.467
REMARK INTRA:                  -2.885
REMARK UNBOUND:                -3.373
REMARK  Name = lig_assembled_27.pdb
REMARK  16 active torsions:
REMARK  status: ('A' for Active; 'I' for Inactive)
REMARK    1  A    between atoms: _2  and  _9
REMARK    2  A    between atoms: _4  and  _18
REMARK    3  A    between atoms: _6  and  _7
REMARK    4  A    between atoms: _6  and  _18
REMARK    5  A    between atoms: _14  and  _34
REMARK    6  A    between atoms: _16  and  _22
REMARK    7  A    between atoms: _17  and  _21
REMARK    8  A    between atoms: _21  and  _22
REMARK    9  A    between atoms: _24  and  _25
REMARK   10  A    between atoms: _26  and  _27
REMARK   11  A    between atoms: _28  and  _30
REMARK   12  A    between atoms: _30  and  _31
REMARK   13  A    between atoms: _30  and  _32
REMARK   14  A    between atoms: _32  and  _33
REMARK   15  A    between atoms: _32  and  _34
REMARK   16  A    between atoms: _35  and  _37
REMARK                            x       y       z     vdW  Elec       q    Type
REMARK                         _______ _______ _______ _____ _____    ______ ____
ROOT
ATOM      1  C   UNL     1      -3.469  11.554  31.282  0.00  0.00    +0.163 C 
ENDROOT
BRANCH   1   2
ATOM      2  O   UNL     1      -2.078  11.617  31.637  0.00  0.00    -0.388 OA
ATOM      3  H   UNL     1      -1.824  10.807  32.085  0.00  0.00    +0.210 HD
ENDBRANCH   1   2
BRANCH   1   4
ATOM      4  C   UNL     1      -3.882  10.104  31.050  0.00  0.00    +0.141 C 
BRANCH   4   7
ATOM      5  C   UNL     1      -3.108   8.174  29.715  0.00  0.00    +0.401 C 
ATOM      6  O   UNL     1      -4.171   7.557  29.818  0.00  0.00    -0.226 OA
ATOM      7  N   UNL     1      -2.884   9.369  30.265  0.00  0.00    -0.279 N 
ATOM      8  H   UNL     1      -1.976   9.792  30.133  0.00  0.00    +0.152 HD
BRANCH   5   9
ATOM      9  O   UNL     1      -2.036   7.592  28.970  0.00  0.00    -0.444 OA
BRANCH   9  10
ATOM     10  C   UNL     1      -2.446   7.398  27.614  0.00  0.00    +0.292 C 
BRANCH  10  12
ATOM     11  N   UNL     1      -1.509   9.657  27.239  0.00  0.00    -0.131 NA
ATOM     12  C   UNL     1      -2.374   8.668  26.869  0.00  0.00    +0.121 A 
ATOM     13  C   UNL     1      -3.081   9.080  25.764  0.00  0.00    +0.143 A 
ATOM     14  N   UNL     1      -2.604  10.340  25.483  0.00  0.00    -0.220 N 
ATOM     15  N   UNL     1      -1.655  10.670  26.394  0.00  0.00    -0.060 NA
BRANCH  14  16
ATOM     16  C   UNL     1      -2.981  11.221  24.438  0.00  0.00    +0.068 A 
ATOM     17  C   UNL     1      -3.062  12.601  24.686  0.00  0.00    +0.028 A 
ATOM     18  C   UNL     1      -3.435  13.478  23.664  0.00  0.00    +0.003 A 
ATOM     19  C   UNL     1      -3.730  12.987  22.394  0.00  0.00    +0.020 A 
ATOM     20  C   UNL     1      -3.647  11.619  22.146  0.00  0.00    +0.043 A 
ATOM     21 CL   UNL     1      -4.009  11.013  20.576  0.00  0.00    -0.083 Cl
ATOM     22  C   UNL     1      -3.275  10.732  23.157  0.00  0.00    +0.047 A 
ENDBRANCH  14  16
ENDBRANCH  10  12
ENDBRANCH   9  10
ENDBRANCH   5   9
ENDBRANCH   4   7
ENDBRANCH   1   4
BRANCH   1  23
ATOM     23  C   UNL     1      -3.751  12.378  30.014  0.00  0.00    +0.175 C 
BRANCH  23  24
ATOM     24  C   UNL     1      -5.253  12.460  29.701  0.00  0.00    +0.176 C 
ATOM     25  O   UNL     1      -5.448  12.019  28.329  0.00  0.00    -0.332 OA
ATOM     26  C   UNL     1      -6.842  11.930  27.884  0.00  0.00    +0.277 C 
ATOM     27  C   UNL     1      -7.569  13.278  28.109  0.00  0.00    +0.110 C 
ATOM     28  C   UNL     1      -7.364  13.803  29.546  0.00  0.00    +0.143 C 
ATOM     29  C   UNL     1      -5.878  13.852  29.905  0.00  0.00    +0.133 C 
BRANCH  29  30
ATOM     30  N   UNL     1      -5.700  14.271  31.304  0.00  0.00    -0.308 N 
ATOM     31  H   UNL     1      -6.100  13.687  32.025  0.00  0.00    +0.149 HD
ATOM     32  C   UNL     1      -5.044  15.371  31.683  0.00  0.00    +0.210 C 
ATOM     33  C   UNL     1      -4.468  16.252  30.559  0.00  0.00    +0.109 C 
ATOM     34  O   UNL     1      -4.898  15.689  32.864  0.00  0.00    -0.276 OA
ENDBRANCH  29  30
BRANCH  26  35
ATOM     35  C   UNL     1      -7.587  10.810  28.640  0.00  0.00    +0.414 C 
ATOM     36  O   UNL     1      -8.779  10.935  28.916  0.00  0.00    -0.240 OA
ATOM     37  O   UNL     1      -6.996   9.782  28.973  0.00  0.00    -0.240 OA
ENDBRANCH  26  35
BRANCH  28  38
ATOM     38  O   UNL     1      -7.920  15.113  29.664  0.00  0.00    -0.390 OA
ATOM     39  H   UNL     1      -8.836  15.100  29.376  0.00  0.00    +0.210 HD
ENDBRANCH  28  38
BRANCH  26  40
ATOM     40  O   UNL     1      -6.842  11.642  26.462  0.00  0.00    -0.343 OA
ATOM     41  C   UNL     1      -6.952  12.805  25.602  0.00  0.00    +0.198 C 
ENDBRANCH  26  40
ENDBRANCH  23  24
BRANCH  23  42
ATOM     42  O   UNL     1      -3.039  11.821  28.891  0.00  0.00    -0.387 OA
ATOM     43  H   UNL     1      -3.336  10.920  28.738  0.00  0.00    +0.210 HD
ENDBRANCH  23  42
ENDBRANCH   1  23
TORSDOF 14
