REMARK VINA RESULT:    -5.422      5.698     10.119
REMARK INTER + INTRA:         -11.554
REMARK INTER:                  -8.765
REMARK INTRA:                  -2.789
REMARK UNBOUND:                -2.170
REMARK  Name = lig_assembled_87.pdb
REMARK  17 active torsions:
REMARK  status: ('A' for Active; 'I' for Inactive)
REMARK    1  A    between atoms: _2  and  _10
REMARK    2  A    between atoms: _3  and  _13
REMARK    3  A    between atoms: _5  and  _21
REMARK    4  A    between atoms: _7  and  _8
REMARK    5  A    between atoms: _7  and  _21
REMARK    6  A    between atoms: _17  and  _37
REMARK    7  A    between atoms: _19  and  _25
REMARK    8  A    between atoms: _20  and  _24
REMARK    9  A    between atoms: _24  and  _25
REMARK   10  A    between atoms: _27  and  _28
REMARK   11  A    between atoms: _29  and  _30
REMARK   12  A    between atoms: _31  and  _33
REMARK   13  A    between atoms: _33  and  _34
REMARK   14  A    between atoms: _33  and  _35
REMARK   15  A    between atoms: _35  and  _36
REMARK   16  A    between atoms: _35  and  _37
REMARK   17  A    between atoms: _38  and  _40
REMARK                            x       y       z     vdW  Elec       q    Type
REMARK                         _______ _______ _______ _____ _____    ______ ____
ROOT
ATOM      1  C   UNL     1      -2.825   9.353  14.170  0.00  0.00    +0.163 C 
ENDROOT
BRANCH   1   2
ATOM      2  O   UNL     1      -1.480   9.144  13.709  0.00  0.00    -0.388 OA
ATOM      3  H   UNL     1      -1.499   8.706  12.855  0.00  0.00    +0.210 HD
ENDBRANCH   1   2
BRANCH   1   4
ATOM      4  C   UNL     1      -3.345   8.092  14.851  0.00  0.00    +0.141 C 
BRANCH   4   7
ATOM      5  C   UNL     1      -4.927   8.518  16.701  0.00  0.00    +0.401 C 
ATOM      6  O   UNL     1      -5.923   8.524  15.973  0.00  0.00    -0.226 OA
ATOM      7  N   UNL     1      -3.683   8.329  16.260  0.00  0.00    -0.279 N 
ATOM      8  H   UNL     1      -2.929   8.351  16.933  0.00  0.00    +0.152 HD
BRANCH   5   9
ATOM      9  O   UNL     1      -5.092   8.727  18.106  0.00  0.00    -0.444 OA
BRANCH   9  10
ATOM     10  C   UNL     1      -6.270   9.505  18.338  0.00  0.00    +0.292 C 
BRANCH  10  12
ATOM     11  N   UNL     1      -6.813  11.714  19.301  0.00  0.00    -0.131 NA
ATOM     12  C   UNL     1      -5.955  10.654  19.205  0.00  0.00    +0.120 A 
ATOM     13  C   UNL     1      -4.871  10.877  20.023  0.00  0.00    +0.137 A 
ATOM     14  N   UNL     1      -5.180  12.033  20.689  0.00  0.00    -0.248 N 
ATOM     15  N   UNL     1      -6.294  12.579  20.155  0.00  0.00    -0.065 NA
BRANCH  14  16
ATOM     16  C   UNL     1      -4.509  12.716  21.810  0.00  0.00    +0.112 C 
ATOM     17  C   UNL     1      -3.124  12.127  22.196  0.00  0.00    +0.045 C 
ATOM     18  C   UNL     1      -2.997  11.609  23.638  0.00  0.00    +0.059 C 
ATOM     19  C   UNL     1      -2.803  12.751  24.645  0.00  0.00    +0.020 C 
ATOM     20  C   UNL     1      -4.206  13.040  25.178  0.00  0.00    +0.020 C 
ATOM     21  C   UNL     1      -5.116  12.171  24.309  0.00  0.00    +0.059 C 
ATOM     22  N   UNL     1      -4.235  11.020  24.133  0.00  0.00    -0.299 NA
ATOM     23  C   UNL     1      -4.762   9.874  23.424  0.00  0.00    +0.105 C 
ATOM     24  C   UNL     1      -5.480  12.902  23.015  0.00  0.00    +0.045 C 
ENDBRANCH  14  16
ENDBRANCH  10  12
ENDBRANCH   9  10
ENDBRANCH   5   9
ENDBRANCH   4   7
ENDBRANCH   1   4
BRANCH   1  25
ATOM     25  C   UNL     1      -3.754   9.729  13.003  0.00  0.00    +0.175 C 
BRANCH  25  26
ATOM     26  C   UNL     1      -3.533  11.173  12.530  0.00  0.00    +0.176 C 
ATOM     27  O   UNL     1      -2.213  11.248  11.925  0.00  0.00    -0.332 OA
ATOM     28  C   UNL     1      -1.867  12.537  11.317  0.00  0.00    +0.277 C 
ATOM     29  C   UNL     1      -2.038  13.683  12.344  0.00  0.00    +0.110 C 
ATOM     30  C   UNL     1      -3.415  13.626  13.037  0.00  0.00    +0.143 C 
ATOM     31  C   UNL     1      -3.673  12.241  13.632  0.00  0.00    +0.133 C 
BRANCH  31  32
ATOM     32  N   UNL     1      -5.023  12.173  14.213  0.00  0.00    -0.308 N 
ATOM     33  H   UNL     1      -5.810  12.169  13.579  0.00  0.00    +0.149 HD
ATOM     34  C   UNL     1      -5.277  12.116  15.523  0.00  0.00    +0.210 C 
ATOM     35  C   UNL     1      -4.057  12.150  16.464  0.00  0.00    +0.109 C 
ATOM     36  O   UNL     1      -6.417  12.045  15.981  0.00  0.00    -0.276 OA
ENDBRANCH  31  32
BRANCH  28  37
ATOM     37  C   UNL     1      -2.751  12.814  10.083  0.00  0.00    +0.414 C 
ATOM     38  O   UNL     1      -3.003  13.971   9.748  0.00  0.00    -0.240 OA
ATOM     39  O   UNL     1      -3.211  11.882   9.422  0.00  0.00    -0.240 OA
ENDBRANCH  28  37
BRANCH  30  40
ATOM     40  O   UNL     1      -3.472  14.602  14.078  0.00  0.00    -0.390 OA
ATOM     41  H   UNL     1      -2.582  14.805  14.376  0.00  0.00    +0.210 HD
ENDBRANCH  30  40
BRANCH  28  42
ATOM     42  O   UNL     1      -0.473  12.485  10.918  0.00  0.00    -0.343 OA
ATOM     43  C   UNL     1       0.257  13.727  11.080  0.00  0.00    +0.198 C 
ENDBRANCH  28  42
ENDBRANCH  25  26
BRANCH  25  44
ATOM     44  O   UNL     1      -5.131   9.536  13.384  0.00  0.00    -0.387 OA
ATOM     45  H   UNL     1      -5.309  10.015  14.197  0.00  0.00    +0.210 HD
ENDBRANCH  25  44
ENDBRANCH   1  25
TORSDOF 14
