REMARK VINA RESULT:    -4.364      3.410      7.912
REMARK INTER + INTRA:         -11.870
REMARK INTER:                  -8.765
REMARK INTRA:                  -3.105
REMARK UNBOUND:                -2.785
REMARK  Name = lig_assembled_54.pdb
REMARK  24 active torsions:
REMARK  status: ('A' for Active; 'I' for Inactive)
REMARK    1  A    between atoms: _2  and  _9
REMARK    2  A    between atoms: _4  and  _21
REMARK    3  A    between atoms: _5  and  _14
REMARK    4  A    between atoms: _6  and  _7
REMARK    5  A    between atoms: _6  and  _21
REMARK    6  A    between atoms: _9  and  _10
REMARK    7  A    between atoms: _10  and  _11
REMARK    8  A    between atoms: _11  and  _15
REMARK    9  A    between atoms: _11  and  _16
REMARK   10  A    between atoms: _12  and  _13
REMARK   11  A    between atoms: _12  and  _16
REMARK   12  A    between atoms: _14  and  _15
REMARK   13  A    between atoms: _17  and  _37
REMARK   14  A    between atoms: _19  and  _25
REMARK   15  A    between atoms: _20  and  _24
REMARK   16  A    between atoms: _24  and  _25
REMARK   17  A    between atoms: _27  and  _28
REMARK   18  A    between atoms: _29  and  _30
REMARK   19  A    between atoms: _31  and  _33
REMARK   20  A    between atoms: _33  and  _34
REMARK   21  A    between atoms: _33  and  _35
REMARK   22  A    between atoms: _35  and  _36
REMARK   23  A    between atoms: _35  and  _37
REMARK   24  A    between atoms: _38  and  _40
REMARK                            x       y       z     vdW  Elec       q    Type
REMARK                         _______ _______ _______ _____ _____    ______ ____
ROOT
ATOM      1  C   UNL     1      -2.771  12.221  23.193  0.00  0.00    +0.163 C 
ENDROOT
BRANCH   1   2
ATOM      2  O   UNL     1      -2.226  12.756  24.411  0.00  0.00    -0.388 OA
ATOM      3  H   UNL     1      -2.151  13.710  24.337  0.00  0.00    +0.210 HD
ENDBRANCH   1   2
BRANCH   1   4
ATOM      4  C   UNL     1      -3.647  10.989  23.478  0.00  0.00    +0.175 C 
BRANCH   4   5
ATOM      5  C   UNL     1      -3.598  10.573  24.955  0.00  0.00    +0.176 C 
ATOM      6  O   UNL     1      -3.377   9.137  25.008  0.00  0.00    -0.332 OA
ATOM      7  C   UNL     1      -3.196   8.572  26.349  0.00  0.00    +0.277 C 
ATOM      8  C   UNL     1      -4.387   8.953  27.262  0.00  0.00    +0.110 C 
ATOM      9  C   UNL     1      -4.680  10.467  27.214  0.00  0.00    +0.143 C 
ATOM     10  C   UNL     1      -4.848  10.948  25.772  0.00  0.00    +0.133 C 
BRANCH  10  11
ATOM     11  N   UNL     1      -5.040  12.407  25.735  0.00  0.00    -0.308 N 
ATOM     12  H   UNL     1      -4.317  12.988  26.134  0.00  0.00    +0.149 HD
ATOM     13  C   UNL     1      -6.108  13.012  25.207  0.00  0.00    +0.210 C 
ATOM     14  C   UNL     1      -7.204  12.097  24.630  0.00  0.00    +0.109 C 
ATOM     15  O   UNL     1      -6.235  14.236  25.177  0.00  0.00    -0.276 OA
ENDBRANCH  10  11
BRANCH   7  16
ATOM     16  C   UNL     1      -1.881   9.075  26.981  0.00  0.00    +0.414 C 
ATOM     17  O   UNL     1      -1.103   9.767  26.326  0.00  0.00    -0.240 OA
ATOM     18  O   UNL     1      -1.599   8.788  28.145  0.00  0.00    -0.240 OA
ENDBRANCH   7  16
BRANCH   9  19
ATOM     19  O   UNL     1      -5.873  10.751  27.947  0.00  0.00    -0.390 OA
ATOM     20  H   UNL     1      -5.849  11.658  28.260  0.00  0.00    +0.210 HD
ENDBRANCH   9  19
BRANCH   7  21
ATOM     21  O   UNL     1      -3.158   7.127  26.226  0.00  0.00    -0.343 OA
ATOM     22  C   UNL     1      -3.717   6.602  24.996  0.00  0.00    +0.198 C 
ENDBRANCH   7  21
ENDBRANCH   4   5
BRANCH   4  23
ATOM     23  O   UNL     1      -3.245   9.888  22.638  0.00  0.00    -0.387 OA
ATOM     24  H   UNL     1      -3.983   9.286  22.523  0.00  0.00    +0.210 HD
ENDBRANCH   4  23
ENDBRANCH   1   4
BRANCH   1  25
ATOM     25  C   UNL     1      -3.601  13.284  22.482  0.00  0.00    +0.141 C 
BRANCH  25  28
ATOM     26  C   UNL     1      -5.810  13.334  21.377  0.00  0.00    +0.401 C 
ATOM     27  O   UNL     1      -6.068  14.486  21.734  0.00  0.00    -0.226 OA
ATOM     28  N   UNL     1      -4.684  12.692  21.687  0.00  0.00    -0.279 N 
ATOM     29  H   UNL     1      -4.568  11.744  21.356  0.00  0.00    +0.152 HD
BRANCH  26  30
ATOM     30  O   UNL     1      -6.766  12.622  20.586  0.00  0.00    -0.444 OA
BRANCH  30  31
ATOM     31  C   UNL     1      -6.832  11.263  21.026  0.00  0.00    +0.292 C 
BRANCH  31  33
ATOM     32  N   UNL     1      -5.063   9.781  20.127  0.00  0.00    -0.131 NA
ATOM     33  C   UNL     1      -6.292  10.368  19.984  0.00  0.00    +0.120 A 
ATOM     34  C   UNL     1      -6.850   9.960  18.791  0.00  0.00    +0.137 A 
ATOM     35  N   UNL     1      -5.931   9.098  18.276  0.00  0.00    -0.251 N 
ATOM     36  N   UNL     1      -4.855   8.997  19.078  0.00  0.00    -0.065 NA
BRANCH  35  37
ATOM     37  C   UNL     1      -6.025   8.295  17.074  0.00  0.00    +0.150 C 
BRANCH  37  38
ATOM     38  C   UNL     1      -5.928   9.147  15.818  0.00  0.00    +0.084 C 
BRANCH  38  39
ATOM     39  C   UNL     1      -4.485   9.427  15.381  0.00  0.00    +0.252 C 
BRANCH  39  40
ATOM     40  O   UNL     1      -3.607   8.431  15.909  0.00  0.00    -0.352 OA
BRANCH  40  41
ATOM     41  C   UNL     1      -2.987   7.615  14.917  0.00  0.00    +0.159 C 
ATOM     42  C   UNL     1      -1.746   8.322  14.408  0.00  0.00    +0.034 C 
ENDBRANCH  40  41
ENDBRANCH  39  40
BRANCH  39  43
ATOM     43  O   UNL     1      -4.121  10.716  15.890  0.00  0.00    -0.352 OA
BRANCH  43  44
ATOM     44  C   UNL     1      -4.699  11.785  15.139  0.00  0.00    +0.159 C 
ATOM     45  C   UNL     1      -3.956  13.069  15.449  0.00  0.00    +0.034 C 
ENDBRANCH  43  44
ENDBRANCH  39  43
ENDBRANCH  38  39
ENDBRANCH  37  38
ENDBRANCH  35  37
ENDBRANCH  31  33
ENDBRANCH  30  31
ENDBRANCH  26  30
ENDBRANCH  25  28
ENDBRANCH   1  25
TORSDOF 20
