REMARK VINA RESULT:    -3.604      3.500     10.359
REMARK INTER + INTRA:         -11.580
REMARK INTER:                  -9.259
REMARK INTRA:                  -2.321
REMARK UNBOUND:                -4.711
REMARK  Name = lig_assembled_62.pdb
REMARK  20 active torsions:
REMARK  status: ('A' for Active; 'I' for Inactive)
REMARK    1  A    between atoms: _2  and  _10
REMARK    2  A    between atoms: _5  and  _19
REMARK    3  A    between atoms: _6  and  _10
REMARK    4  A    between atoms: _7  and  _8
REMARK    5  A    between atoms: _7  and  _19
REMARK    6  A    between atoms: _10  and  _11
REMARK    7  A    between atoms: _11  and  _14
REMARK    8  A    between atoms: _12  and  _14
REMARK    9  A    between atoms: _15  and  _35
REMARK   10  A    between atoms: _17  and  _23
REMARK   11  A    between atoms: _18  and  _22
REMARK   12  A    between atoms: _22  and  _23
REMARK   13  A    between atoms: _25  and  _26
REMARK   14  A    between atoms: _27  and  _28
REMARK   15  A    between atoms: _29  and  _31
REMARK   16  A    between atoms: _31  and  _32
REMARK   17  A    between atoms: _31  and  _33
REMARK   18  A    between atoms: _33  and  _34
REMARK   19  A    between atoms: _33  and  _35
REMARK   20  A    between atoms: _36  and  _38
REMARK                            x       y       z     vdW  Elec       q    Type
REMARK                         _______ _______ _______ _____ _____    ______ ____
ROOT
ATOM      1  C   UNL     1      -3.172  11.690  24.876  0.00  0.00    +0.163 C 
ENDROOT
BRANCH   1   2
ATOM      2  O   UNL     1      -2.032  12.437  24.419  0.00  0.00    -0.388 OA
ATOM      3  H   UNL     1      -1.252  12.163  24.906  0.00  0.00    +0.210 HD
ENDBRANCH   1   2
BRANCH   1   4
ATOM      4  C   UNL     1      -3.498  12.026  26.341  0.00  0.00    +0.175 C 
BRANCH   4   5
ATOM      5  C   UNL     1      -3.340  10.807  27.262  0.00  0.00    +0.176 C 
ATOM      6  O   UNL     1      -3.971   9.670  26.611  0.00  0.00    -0.332 OA
ATOM      7  C   UNL     1      -3.827   8.385  27.301  0.00  0.00    +0.277 C 
ATOM      8  C   UNL     1      -4.328   8.496  28.762  0.00  0.00    +0.110 C 
ATOM      9  C   UNL     1      -3.709   9.710  29.486  0.00  0.00    +0.143 C 
ATOM     10  C   UNL     1      -3.914  10.992  28.680  0.00  0.00    +0.133 C 
BRANCH  10  11
ATOM     11  N   UNL     1      -3.245  12.126  29.337  0.00  0.00    -0.308 N 
ATOM     12  H   UNL     1      -2.234  12.134  29.350  0.00  0.00    +0.149 HD
ATOM     13  C   UNL     1      -3.885  13.146  29.915  0.00  0.00    +0.210 C 
ATOM     14  C   UNL     1      -5.424  13.091  29.900  0.00  0.00    +0.109 C 
ATOM     15  O   UNL     1      -3.298  14.090  30.445  0.00  0.00    -0.276 OA
ENDBRANCH  10  11
BRANCH   7  16
ATOM     16  C   UNL     1      -2.355   7.922  27.294  0.00  0.00    +0.414 C 
ATOM     17  O   UNL     1      -1.860   7.416  28.300  0.00  0.00    -0.240 OA
ATOM     18  O   UNL     1      -1.664   8.056  26.284  0.00  0.00    -0.240 OA
ENDBRANCH   7  16
BRANCH   7  19
ATOM     19  O   UNL     1      -4.648   7.410  26.609  0.00  0.00    -0.343 OA
ATOM     20  C   UNL     1      -5.184   7.853  25.336  0.00  0.00    +0.198 C 
ENDBRANCH   7  19
BRANCH   9  21
ATOM     21  O   UNL     1      -4.310   9.861  30.773  0.00  0.00    -0.390 OA
ATOM     22  H   UNL     1      -4.028   9.144  31.345  0.00  0.00    +0.210 HD
ENDBRANCH   9  21
ENDBRANCH   4   5
BRANCH   4  23
ATOM     23  O   UNL     1      -4.834  12.557  26.444  0.00  0.00    -0.387 OA
ATOM     24  H   UNL     1      -5.219  12.627  25.567  0.00  0.00    +0.210 HD
ENDBRANCH   4  23
ENDBRANCH   1   4
BRANCH   1  25
ATOM     25  C   UNL     1      -4.383  11.998  24.001  0.00  0.00    +0.141 C 
BRANCH  25  28
ATOM     26  C   UNL     1      -3.785  11.290  21.710  0.00  0.00    +0.401 C 
ATOM     27  O   UNL     1      -3.029  12.243  21.512  0.00  0.00    -0.226 OA
ATOM     28  N   UNL     1      -4.463  11.099  22.843  0.00  0.00    -0.279 N 
ATOM     29  H   UNL     1      -5.067  10.292  22.908  0.00  0.00    +0.152 HD
BRANCH  26  30
ATOM     30  O   UNL     1      -3.965  10.318  20.677  0.00  0.00    -0.444 OA
BRANCH  30  31
ATOM     31  C   UNL     1      -5.308  10.382  20.189  0.00  0.00    +0.292 C 
BRANCH  31  33
ATOM     32  N   UNL     1      -5.887  12.016  18.421  0.00  0.00    -0.131 NA
ATOM     33  C   UNL     1      -5.323  10.822  18.782  0.00  0.00    +0.120 A 
ATOM     34  C   UNL     1      -4.828  10.202  17.656  0.00  0.00    +0.138 A 
ATOM     35  N   UNL     1      -5.134  11.060  16.640  0.00  0.00    -0.237 N 
ATOM     36  N   UNL     1      -5.765  12.154  17.108  0.00  0.00    -0.065 NA
BRANCH  35  37
ATOM     37  C   UNL     1      -4.847  10.954  15.219  0.00  0.00    +0.219 C 
BRANCH  37  38
ATOM     38  C   UNL     1      -3.447  11.468  14.924  0.00  0.00    +0.237 C 
ATOM     39  O   UNL     1      -2.529  10.771  14.500  0.00  0.00    -0.274 OA
ATOM     40  N   UNL     1      -3.253  12.813  15.094  0.00  0.00    -0.328 N 
ATOM     41  H   UNL     1      -3.987  13.459  15.351  0.00  0.00    +0.145 HD
ATOM     42  H   UNL     1      -2.332  13.184  14.895  0.00  0.00    +0.145 HD
ENDBRANCH  37  38
BRANCH  37  43
ATOM     43  C   UNL     1      -5.891  11.707  14.399  0.00  0.00    +0.195 C 
BRANCH  43  44
ATOM     44  O   UNL     1      -5.364  11.979  13.093  0.00  0.00    -0.380 OA
ATOM     45  C   UNL     1      -5.917  13.166  12.538  0.00  0.00    +0.194 C 
ENDBRANCH  43  44
ENDBRANCH  37  43
ENDBRANCH  35  37
ENDBRANCH  31  33
ENDBRANCH  30  31
ENDBRANCH  26  30
ENDBRANCH  25  28
ENDBRANCH   1  25
TORSDOF 17
