REMARK VINA RESULT:    -4.588      8.742     14.036
REMARK INTER + INTRA:         -10.968
REMARK INTER:                  -8.041
REMARK INTRA:                  -2.927
REMARK UNBOUND:                -2.759
REMARK  Name = lig_assembled_38.pdb
REMARK  17 active torsions:
REMARK  status: ('A' for Active; 'I' for Inactive)
REMARK    1  A    between atoms: _2  and  _9
REMARK    2  A    between atoms: _4  and  _19
REMARK    3  A    between atoms: _6  and  _7
REMARK    4  A    between atoms: _6  and  _19
REMARK    5  A    between atoms: _9  and  _10
REMARK    6  A    between atoms: _15  and  _35
REMARK    7  A    between atoms: _17  and  _23
REMARK    8  A    between atoms: _18  and  _22
REMARK    9  A    between atoms: _22  and  _23
REMARK   10  A    between atoms: _25  and  _26
REMARK   11  A    between atoms: _27  and  _28
REMARK   12  A    between atoms: _29  and  _31
REMARK   13  A    between atoms: _31  and  _32
REMARK   14  A    between atoms: _31  and  _33
REMARK   15  A    between atoms: _33  and  _34
REMARK   16  A    between atoms: _33  and  _35
REMARK   17  A    between atoms: _36  and  _38
REMARK                            x       y       z     vdW  Elec       q    Type
REMARK                         _______ _______ _______ _____ _____    ______ ____
ROOT
ATOM      1  C   UNL     1      -2.906   8.722  12.741  0.00  0.00    +0.163 C 
ENDROOT
BRANCH   1   2
ATOM      2  O   UNL     1      -3.043   9.006  11.339  0.00  0.00    -0.388 OA
ATOM      3  H   UNL     1      -2.192   9.273  10.981  0.00  0.00    +0.210 HD
ENDBRANCH   1   2
BRANCH   1   4
ATOM      4  C   UNL     1      -3.866   7.608  13.144  0.00  0.00    +0.141 C 
BRANCH   4   7
ATOM      5  C   UNL     1      -6.230   7.896  13.803  0.00  0.00    +0.401 C 
ATOM      6  O   UNL     1      -6.674   7.290  12.826  0.00  0.00    -0.226 OA
ATOM      7  N   UNL     1      -4.931   8.097  14.028  0.00  0.00    -0.279 N 
ATOM      8  H   UNL     1      -4.664   8.614  14.854  0.00  0.00    +0.152 HD
BRANCH   5   9
ATOM      9  O   UNL     1      -7.144   8.428  14.766  0.00  0.00    -0.444 OA
BRANCH   9  10
ATOM     10  C   UNL     1      -7.041   7.686  15.984  0.00  0.00    +0.292 C 
BRANCH  10  12
ATOM     11  N   UNL     1      -5.175   8.568  17.355  0.00  0.00    -0.131 NA
ATOM     12  C   UNL     1      -6.514   8.543  17.065  0.00  0.00    +0.120 A 
ATOM     13  C   UNL     1      -7.170   9.428  17.891  0.00  0.00    +0.137 A 
ATOM     14  N   UNL     1      -6.169  10.001  18.622  0.00  0.00    -0.247 N 
ATOM     15  N   UNL     1      -4.974   9.470  18.305  0.00  0.00    -0.065 NA
BRANCH  14  16
ATOM     16  C   UNL     1      -6.246  11.195  19.445  0.00  0.00    +0.180 C 
BRANCH  16  17
ATOM     17  C   UNL     1      -5.112  11.316  20.434  0.00  0.00    -0.025 A 
ATOM     18  C   UNL     1      -4.080  12.247  20.236  0.00  0.00    +0.005 A 
ATOM     19  C   UNL     1      -3.082  12.418  21.201  0.00  0.00    +0.001 A 
ATOM     20  C   UNL     1      -3.102  11.662  22.371  0.00  0.00    +0.015 A 
ATOM     21  C   UNL     1      -4.116  10.730  22.569  0.00  0.00    +0.018 A 
ATOM     22 BR   UNL     1      -4.153   9.709  24.160  0.00  0.00    -0.050 Br
ATOM     23  C   UNL     1      -5.117  10.553  21.612  0.00  0.00    +0.020 A 
ENDBRANCH  16  17
ENDBRANCH  14  16
ENDBRANCH  10  12
ENDBRANCH   9  10
ENDBRANCH   5   9
ENDBRANCH   4   7
ENDBRANCH   1   4
BRANCH   1  24
ATOM     24  C   UNL     1      -3.189   9.976  13.586  0.00  0.00    +0.175 C 
BRANCH  24  25
ATOM     25  C   UNL     1      -3.218  11.253  12.734  0.00  0.00    +0.176 C 
ATOM     26  O   UNL     1      -1.889  11.451  12.179  0.00  0.00    -0.332 OA
ATOM     27  C   UNL     1      -1.752  12.574  11.246  0.00  0.00    +0.277 C 
ATOM     28  C   UNL     1      -2.246  13.886  11.902  0.00  0.00    +0.110 C 
ATOM     29  C   UNL     1      -3.644  13.716  12.534  0.00  0.00    +0.143 C 
ATOM     30  C   UNL     1      -3.674  12.518  13.485  0.00  0.00    +0.133 C 
BRANCH  30  31
ATOM     31  N   UNL     1      -5.032  12.314  14.014  0.00  0.00    -0.308 N 
ATOM     32  H   UNL     1      -5.783  12.191  13.349  0.00  0.00    +0.149 HD
ATOM     33  C   UNL     1      -5.336  12.281  15.314  0.00  0.00    +0.210 C 
ATOM     34  C   UNL     1      -4.173  12.499  16.300  0.00  0.00    +0.109 C 
ATOM     35  O   UNL     1      -6.480  12.094  15.728  0.00  0.00    -0.276 OA
ENDBRANCH  30  31
BRANCH  27  36
ATOM     36  C   UNL     1      -2.552  12.311   9.953  0.00  0.00    +0.414 C 
ATOM     37  O   UNL     1      -2.684  11.164   9.528  0.00  0.00    -0.240 OA
ATOM     38  O   UNL     1      -3.065  13.245   9.336  0.00  0.00    -0.240 OA
ENDBRANCH  27  36
BRANCH  27  39
ATOM     39  O   UNL     1      -0.345  12.723  10.927  0.00  0.00    -0.343 OA
ATOM     40  C   UNL     1       0.255  13.967  11.371  0.00  0.00    +0.198 C 
ENDBRANCH  27  39
BRANCH  29  41
ATOM     41  O   UNL     1      -3.994  14.898  13.256  0.00  0.00    -0.390 OA
ATOM     42  H   UNL     1      -3.347  15.585  13.078  0.00  0.00    +0.210 HD
ENDBRANCH  29  41
ENDBRANCH  24  25
BRANCH  24  43
ATOM     43  O   UNL     1      -2.207  10.100  14.634  0.00  0.00    -0.387 OA
ATOM     44  H   UNL     1      -2.440   9.520  15.362  0.00  0.00    +0.210 HD
ENDBRANCH  24  43
ENDBRANCH   1  24
TORSDOF 15
