REMARK VINA RESULT:    -5.276      3.156      8.501
REMARK INTER + INTRA:         -11.302
REMARK INTER:                  -8.068
REMARK INTRA:                  -3.234
REMARK UNBOUND:                -2.170
REMARK  Name = lig_assembled_87.pdb
REMARK  17 active torsions:
REMARK  status: ('A' for Active; 'I' for Inactive)
REMARK    1  A    between atoms: _2  and  _10
REMARK    2  A    between atoms: _3  and  _13
REMARK    3  A    between atoms: _5  and  _21
REMARK    4  A    between atoms: _7  and  _8
REMARK    5  A    between atoms: _7  and  _21
REMARK    6  A    between atoms: _17  and  _37
REMARK    7  A    between atoms: _19  and  _25
REMARK    8  A    between atoms: _20  and  _24
REMARK    9  A    between atoms: _24  and  _25
REMARK   10  A    between atoms: _27  and  _28
REMARK   11  A    between atoms: _29  and  _30
REMARK   12  A    between atoms: _31  and  _33
REMARK   13  A    between atoms: _33  and  _34
REMARK   14  A    between atoms: _33  and  _35
REMARK   15  A    between atoms: _35  and  _36
REMARK   16  A    between atoms: _35  and  _37
REMARK   17  A    between atoms: _38  and  _40
REMARK                            x       y       z     vdW  Elec       q    Type
REMARK                         _______ _______ _______ _____ _____    ______ ____
ROOT
ATOM      1  C   UNL     1      -4.366  13.035  29.664  0.00  0.00    +0.163 C 
ENDROOT
BRANCH   1   2
ATOM      2  O   UNL     1      -3.154  13.001  30.436  0.00  0.00    -0.388 OA
ATOM      3  H   UNL     1      -2.418  13.282  29.889  0.00  0.00    +0.210 HD
ENDBRANCH   1   2
BRANCH   1   4
ATOM      4  C   UNL     1      -5.428  13.848  30.396  0.00  0.00    +0.141 C 
BRANCH   4   7
ATOM      5  C   UNL     1      -6.952  15.072  28.884  0.00  0.00    +0.401 C 
ATOM      6  O   UNL     1      -6.236  16.074  28.820  0.00  0.00    -0.226 OA
ATOM      7  N   UNL     1      -6.655  13.988  29.602  0.00  0.00    -0.279 N 
ATOM      8  H   UNL     1      -7.311  13.219  29.599  0.00  0.00    +0.152 HD
BRANCH   5   9
ATOM      9  O   UNL     1      -8.182  15.050  28.156  0.00  0.00    -0.444 OA
BRANCH   9  10
ATOM     10  C   UNL     1      -7.924  15.305  26.773  0.00  0.00    +0.292 C 
BRANCH  10  12
ATOM     11  N   UNL     1      -7.714  12.910  26.206  0.00  0.00    -0.131 NA
ATOM     12  C   UNL     1      -7.192  14.173  26.176  0.00  0.00    +0.120 A 
ATOM     13  C   UNL     1      -5.981  14.145  25.523  0.00  0.00    +0.137 A 
ATOM     14  N   UNL     1      -5.872  12.859  25.066  0.00  0.00    -0.248 N 
ATOM     15  N   UNL     1      -6.865  12.108  25.587  0.00  0.00    -0.065 NA
BRANCH  14  16
ATOM     16  C   UNL     1      -4.888  12.230  24.165  0.00  0.00    +0.112 C 
ATOM     17  C   UNL     1      -3.883  13.216  23.509  0.00  0.00    +0.045 C 
ATOM     18  C   UNL     1      -3.894  13.255  21.972  0.00  0.00    +0.059 C 
ATOM     19  C   UNL     1      -3.141  12.065  21.360  0.00  0.00    +0.020 C 
ATOM     20  C   UNL     1      -4.228  11.035  21.055  0.00  0.00    +0.020 C 
ATOM     21  C   UNL     1      -5.490  11.636  21.676  0.00  0.00    +0.059 C 
ATOM     22  N   UNL     1      -5.225  13.048  21.415  0.00  0.00    -0.299 NA
ATOM     23  C   UNL     1      -6.255  14.001  21.769  0.00  0.00    +0.105 C 
ATOM     24  C   UNL     1      -5.586  11.267  23.158  0.00  0.00    +0.045 C 
ENDBRANCH  14  16
ENDBRANCH  10  12
ENDBRANCH   9  10
ENDBRANCH   5   9
ENDBRANCH   4   7
ENDBRANCH   1   4
BRANCH   1  25
ATOM     25  C   UNL     1      -4.895  11.613  29.407  0.00  0.00    +0.175 C 
BRANCH  25  26
ATOM     26  C   UNL     1      -3.812  10.690  28.828  0.00  0.00    +0.176 C 
ATOM     27  O   UNL     1      -4.247  10.263  27.508  0.00  0.00    -0.332 OA
ATOM     28  C   UNL     1      -3.285   9.454  26.754  0.00  0.00    +0.277 C 
ATOM     29  C   UNL     1      -2.846   8.223  27.584  0.00  0.00    +0.110 C 
ATOM     30  C   UNL     1      -2.404   8.624  29.007  0.00  0.00    +0.143 C 
ATOM     31  C   UNL     1      -3.478   9.464  29.699  0.00  0.00    +0.133 C 
BRANCH  31  32
ATOM     32  N   UNL     1      -3.010   9.913  31.020  0.00  0.00    -0.308 N 
ATOM     33  H   UNL     1      -2.191  10.505  31.054  0.00  0.00    +0.149 HD
ATOM     34  C   UNL     1      -3.595   9.588  32.176  0.00  0.00    +0.210 C 
ATOM     35  C   UNL     1      -4.824   8.664  32.091  0.00  0.00    +0.109 C 
ATOM     36  O   UNL     1      -3.189   9.991  33.266  0.00  0.00    -0.276 OA
ENDBRANCH  31  32
BRANCH  28  37
ATOM     37  C   UNL     1      -2.045  10.291  26.376  0.00  0.00    +0.414 C 
ATOM     38  O   UNL     1      -2.161  11.485  26.106  0.00  0.00    -0.240 OA
ATOM     39  O   UNL     1      -0.929   9.771  26.341  0.00  0.00    -0.240 OA
ENDBRANCH  28  37
BRANCH  30  40
ATOM     40  O   UNL     1      -2.153   7.450  29.782  0.00  0.00    -0.390 OA
ATOM     41  H   UNL     1      -2.974   7.146  30.177  0.00  0.00    +0.210 HD
ENDBRANCH  30  40
BRANCH  28  42
ATOM     42  O   UNL     1      -3.942   8.983  25.549  0.00  0.00    -0.343 OA
ATOM     43  C   UNL     1      -5.232   8.355  25.760  0.00  0.00    +0.198 C 
ENDBRANCH  28  42
ENDBRANCH  25  26
BRANCH  25  44
ATOM     44  O   UNL     1      -6.033  11.659  28.524  0.00  0.00    -0.387 OA
ATOM     45  H   UNL     1      -5.807  11.241  27.689  0.00  0.00    +0.210 HD
ENDBRANCH  25  44
ENDBRANCH   1  25
TORSDOF 14
