REMARK VINA RESULT:    -4.137      6.711      9.446
REMARK INTER + INTRA:         -11.533
REMARK INTER:                  -8.932
REMARK INTRA:                  -2.601
REMARK UNBOUND:                -3.890
REMARK  Name = lig_assembled_66.pdb
REMARK  18 active torsions:
REMARK  status: ('A' for Active; 'I' for Inactive)
REMARK    1  A    between atoms: _2  and  _10
REMARK    2  A    between atoms: _5  and  _21
REMARK    3  A    between atoms: _7  and  _8
REMARK    4  A    between atoms: _7  and  _21
REMARK    5  A    between atoms: _10  and  _11
REMARK    6  A    between atoms: _15  and  _16
REMARK    7  A    between atoms: _17  and  _37
REMARK    8  A    between atoms: _19  and  _25
REMARK    9  A    between atoms: _20  and  _24
REMARK   10  A    between atoms: _24  and  _25
REMARK   11  A    between atoms: _27  and  _28
REMARK   12  A    between atoms: _29  and  _30
REMARK   13  A    between atoms: _31  and  _33
REMARK   14  A    between atoms: _33  and  _34
REMARK   15  A    between atoms: _33  and  _35
REMARK   16  A    between atoms: _35  and  _36
REMARK   17  A    between atoms: _35  and  _37
REMARK   18  A    between atoms: _38  and  _40
REMARK                            x       y       z     vdW  Elec       q    Type
REMARK                         _______ _______ _______ _____ _____    ______ ____
ROOT
ATOM      1  C   UNL     1      -7.181  10.913  14.931  0.00  0.00    +0.163 C 
ENDROOT
BRANCH   1   2
ATOM      2  O   UNL     1      -6.218  11.864  14.448  0.00  0.00    -0.388 OA
ATOM      3  H   UNL     1      -5.676  12.171  15.179  0.00  0.00    +0.210 HD
ENDBRANCH   1   2
BRANCH   1   4
ATOM      4  C   UNL     1      -6.611   9.484  14.889  0.00  0.00    +0.175 C 
BRANCH   4   5
ATOM      5  C   UNL     1      -5.137   9.463  14.458  0.00  0.00    +0.176 C 
ATOM      6  O   UNL     1      -5.093   9.551  13.007  0.00  0.00    -0.332 OA
ATOM      7  C   UNL     1      -3.755   9.651  12.418  0.00  0.00    +0.277 C 
ATOM      8  C   UNL     1      -2.864   8.479  12.897  0.00  0.00    +0.110 C 
ATOM      9  C   UNL     1      -2.903   8.325  14.432  0.00  0.00    +0.143 C 
ATOM     10  C   UNL     1      -4.343   8.234  14.938  0.00  0.00    +0.133 C 
BRANCH  10  11
ATOM     11  N   UNL     1      -4.370   8.176  16.408  0.00  0.00    -0.308 N 
ATOM     12  H   UNL     1      -3.935   8.932  16.919  0.00  0.00    +0.149 HD
ATOM     13  C   UNL     1      -4.930   7.188  17.112  0.00  0.00    +0.210 C 
ATOM     14  C   UNL     1      -5.560   6.038  16.306  0.00  0.00    +0.109 C 
ATOM     15  O   UNL     1      -4.951   7.173  18.344  0.00  0.00    -0.276 OA
ENDBRANCH  10  11
BRANCH   7  16
ATOM     16  C   UNL     1      -3.090  10.991  12.793  0.00  0.00    +0.414 C 
ATOM     17  O   UNL     1      -3.736  11.863  13.374  0.00  0.00    -0.240 OA
ATOM     18  O   UNL     1      -1.909  11.202  12.516  0.00  0.00    -0.240 OA
ENDBRANCH   7  16
BRANCH   7  19
ATOM     19  O   UNL     1      -3.891   9.561  10.976  0.00  0.00    -0.343 OA
ATOM     20  C   UNL     1      -3.793   8.220  10.434  0.00  0.00    +0.198 C 
ENDBRANCH   7  19
BRANCH   9  21
ATOM     21  O   UNL     1      -2.193   7.147  14.817  0.00  0.00    -0.390 OA
ATOM     22  H   UNL     1      -2.490   6.863  15.684  0.00  0.00    +0.210 HD
ENDBRANCH   9  21
ENDBRANCH   4   5
BRANCH   4  23
ATOM     23  O   UNL     1      -7.398   8.661  14.005  0.00  0.00    -0.387 OA
ATOM     24  H   UNL     1      -8.209   8.400  14.449  0.00  0.00    +0.210 HD
ENDBRANCH   4  23
ENDBRANCH   1   4
BRANCH   1  25
ATOM     25  C   UNL     1      -7.584  11.258  16.360  0.00  0.00    +0.141 C 
BRANCH  25  28
ATOM     26  C   UNL     1      -5.533  11.197  17.737  0.00  0.00    +0.401 C 
ATOM     27  O   UNL     1      -5.098  12.267  17.305  0.00  0.00    -0.226 OA
ATOM     28  N   UNL     1      -6.684  10.647  17.346  0.00  0.00    -0.279 N 
ATOM     29  H   UNL     1      -6.951   9.761  17.751  0.00  0.00    +0.152 HD
BRANCH  26  30
ATOM     30  O   UNL     1      -4.772  10.481  18.713  0.00  0.00    -0.444 OA
BRANCH  30  31
ATOM     31  C   UNL     1      -5.494  10.441  19.947  0.00  0.00    +0.292 C 
BRANCH  31  33
ATOM     32  N   UNL     1      -6.185  12.562  21.026  0.00  0.00    -0.131 NA
ATOM     33  C   UNL     1      -5.206  11.645  20.752  0.00  0.00    +0.120 A 
ATOM     34  C   UNL     1      -4.038  12.036  21.367  0.00  0.00    +0.137 A 
ATOM     35  N   UNL     1      -4.386  13.167  22.047  0.00  0.00    -0.247 N 
ATOM     36  N   UNL     1      -5.673  13.491  21.823  0.00  0.00    -0.065 NA
BRANCH  35  37
ATOM     37  C   UNL     1      -3.639  13.825  23.103  0.00  0.00    +0.180 C 
BRANCH  37  38
ATOM     38  C   UNL     1      -3.734  13.119  24.431  0.00  0.00    -0.025 A 
ATOM     39  C   UNL     1      -4.786  13.405  25.313  0.00  0.00    +0.005 A 
ATOM     40  C   UNL     1      -4.928  12.696  26.508  0.00  0.00    +0.002 A 
ATOM     41  C   UNL     1      -4.007  11.704  26.846  0.00  0.00    +0.019 A 
ATOM     42  C   UNL     1      -2.933  11.431  25.996  0.00  0.00    +0.052 A 
ATOM     43  C   UNL     1      -2.798  12.135  24.792  0.00  0.00    +0.024 A 
BRANCH  42  44
ATOM     44  C   UNL     1      -1.975  10.423  26.349  0.00  0.00    +0.099 C 
ATOM     45  N   UNL     1      -1.202   9.603  26.627  0.00  0.00    -0.191 NA
ENDBRANCH  42  44
ENDBRANCH  37  38
ENDBRANCH  35  37
ENDBRANCH  31  33
ENDBRANCH  30  31
ENDBRANCH  26  30
ENDBRANCH  25  28
ENDBRANCH   1  25
TORSDOF 16
