REMARK VINA RESULT:    -4.074      2.380      7.145
REMARK INTER + INTRA:         -11.559
REMARK INTER:                  -7.469
REMARK INTRA:                  -4.089
REMARK UNBOUND:                -3.793
REMARK  Name = lig_assembled_21.pdb
REMARK  20 active torsions:
REMARK  status: ('A' for Active; 'I' for Inactive)
REMARK    1  A    between atoms: _2  and  _9
REMARK    2  A    between atoms: _4  and  _23
REMARK    3  A    between atoms: _6  and  _7
REMARK    4  A    between atoms: _6  and  _23
REMARK    5  A    between atoms: _9  and  _10
REMARK    6  A    between atoms: _11  and  _18
REMARK    7  A    between atoms: _12  and  _13
REMARK    8  A    between atoms: _12  and  _18
REMARK    9  A    between atoms: _19  and  _39
REMARK   10  A    between atoms: _21  and  _27
REMARK   11  A    between atoms: _22  and  _26
REMARK   12  A    between atoms: _26  and  _27
REMARK   13  A    between atoms: _29  and  _30
REMARK   14  A    between atoms: _31  and  _32
REMARK   15  A    between atoms: _33  and  _35
REMARK   16  A    between atoms: _35  and  _36
REMARK   17  A    between atoms: _35  and  _37
REMARK   18  A    between atoms: _37  and  _38
REMARK   19  A    between atoms: _37  and  _39
REMARK   20  A    between atoms: _40  and  _42
REMARK                            x       y       z     vdW  Elec       q    Type
REMARK                         _______ _______ _______ _____ _____    ______ ____
ROOT
ATOM      1  C   UNL     1      -2.828  10.710  27.926  0.00  0.00    +0.163 C 
ENDROOT
BRANCH   1   2
ATOM      2  O   UNL     1      -3.075  10.813  26.514  0.00  0.00    -0.388 OA
ATOM      3  H   UNL     1      -3.242   9.939  26.153  0.00  0.00    +0.210 HD
ENDBRANCH   1   2
BRANCH   1   4
ATOM      4  C   UNL     1      -4.109  10.990  28.730  0.00  0.00    +0.175 C 
BRANCH   4   5
ATOM      5  C   UNL     1      -4.045  10.395  30.145  0.00  0.00    +0.176 C 
ATOM      6  O   UNL     1      -5.129   9.434  30.276  0.00  0.00    -0.332 OA
ATOM      7  C   UNL     1      -5.161   8.683  31.534  0.00  0.00    +0.277 C 
ATOM      8  C   UNL     1      -5.172   9.652  32.742  0.00  0.00    +0.110 C 
ATOM      9  C   UNL     1      -4.057  10.713  32.632  0.00  0.00    +0.143 C 
ATOM     10  C   UNL     1      -4.114  11.431  31.283  0.00  0.00    +0.133 C 
BRANCH  10  11
ATOM     11  N   UNL     1      -2.995  12.377  31.155  0.00  0.00    -0.308 N 
ATOM     12  H   UNL     1      -2.057  12.002  31.162  0.00  0.00    +0.149 HD
ATOM     13  C   UNL     1      -3.137  13.699  31.029  0.00  0.00    +0.210 C 
ATOM     14  C   UNL     1      -4.579  14.242  31.047  0.00  0.00    +0.109 C 
ATOM     15  O   UNL     1      -2.181  14.466  30.909  0.00  0.00    -0.276 OA
ENDBRANCH  10  11
BRANCH   7  16
ATOM     16  C   UNL     1      -3.945   7.741  31.641  0.00  0.00    +0.414 C 
ATOM     17  O   UNL     1      -3.487   7.202  30.633  0.00  0.00    -0.240 OA
ATOM     18  O   UNL     1      -3.421   7.518  32.733  0.00  0.00    -0.240 OA
ENDBRANCH   7  16
BRANCH   9  19
ATOM     19  O   UNL     1      -4.198  11.671  33.681  0.00  0.00    -0.390 OA
ATOM     20  H   UNL     1      -4.528  11.236  34.471  0.00  0.00    +0.210 HD
ENDBRANCH   9  19
BRANCH   7  21
ATOM     21  O   UNL     1      -6.386   7.905  31.561  0.00  0.00    -0.343 OA
ATOM     22  C   UNL     1      -6.913   7.549  30.258  0.00  0.00    +0.198 C 
ENDBRANCH   7  21
ENDBRANCH   4   5
BRANCH   4  23
ATOM     23  O   UNL     1      -5.259  10.476  28.027  0.00  0.00    -0.387 OA
ATOM     24  H   UNL     1      -5.608   9.716  28.498  0.00  0.00    +0.210 HD
ENDBRANCH   4  23
ENDBRANCH   1   4
BRANCH   1  25
ATOM     25  C   UNL     1      -2.308   9.317  28.264  0.00  0.00    +0.141 C 
BRANCH  25  28
ATOM     26  C   UNL     1      -2.754   7.457  26.700  0.00  0.00    +0.401 C 
ATOM     27  O   UNL     1      -1.645   7.519  26.162  0.00  0.00    -0.226 OA
ATOM     28  N   UNL     1      -3.150   8.263  27.686  0.00  0.00    -0.279 N 
ATOM     29  H   UNL     1      -4.082   8.141  28.056  0.00  0.00    +0.152 HD
BRANCH  26  30
ATOM     30  O   UNL     1      -3.689   6.473  26.251  0.00  0.00    -0.444 OA
BRANCH  30  31
ATOM     31  C   UNL     1      -3.893   6.614  24.843  0.00  0.00    +0.292 C 
BRANCH  31  33
ATOM     32  N   UNL     1      -5.196   8.579  25.585  0.00  0.00    -0.131 NA
ATOM     33  C   UNL     1      -4.706   7.812  24.564  0.00  0.00    +0.120 A 
ATOM     34  C   UNL     1      -5.076   8.374  23.362  0.00  0.00    +0.137 A 
ATOM     35  N   UNL     1      -5.711   9.533  23.719  0.00  0.00    -0.247 N 
ATOM     36  N   UNL     1      -5.811   9.627  25.057  0.00  0.00    -0.065 NA
BRANCH  35  37
ATOM     37  C   UNL     1      -6.150  10.585  22.808  0.00  0.00    +0.184 C 
BRANCH  37  38
ATOM     38  C   UNL     1      -5.112  11.625  22.461  0.00  0.00    +0.016 A 
ATOM     39  C   UNL     1      -5.047  12.862  23.129  0.00  0.00    +0.137 A 
ATOM     40  C   UNL     1      -4.078  13.809  22.795  0.00  0.00    +0.047 A 
ATOM     41  C   UNL     1      -3.147  13.523  21.797  0.00  0.00    +0.004 A 
ATOM     42  C   UNL     1      -3.204  12.310  21.114  0.00  0.00    +0.001 A 
ATOM     43  C   UNL     1      -4.177  11.366  21.445  0.00  0.00    +0.009 A 
BRANCH  39  44
ATOM     44  O   UNL     1      -6.057  13.125  24.084  0.00  0.00    -0.426 OA
BRANCH  44  45
ATOM     45  C   UNL     1      -5.838  13.012  25.459  0.00  0.00    +0.309 C 
ATOM     46  O   UNL     1      -4.764  13.056  26.043  0.00  0.00    -0.251 OA
ATOM     47  C   UNL     1      -7.163  12.899  26.154  0.00  0.00    +0.136 C 
ENDBRANCH  44  45
ENDBRANCH  39  44
ENDBRANCH  37  38
ENDBRANCH  35  37
ENDBRANCH  31  33
ENDBRANCH  30  31
ENDBRANCH  26  30
ENDBRANCH  25  28
ENDBRANCH   1  25
TORSDOF 17
