REMARK VINA RESULT:    -4.972      2.949      7.107
REMARK INTER + INTRA:         -11.200
REMARK INTER:                  -8.017
REMARK INTRA:                  -3.183
REMARK UNBOUND:                -2.303
REMARK  Name = lig_assembled_4.pdb
REMARK  19 active torsions:
REMARK  status: ('A' for Active; 'I' for Inactive)
REMARK    1  A    between atoms: _2  and  _9
REMARK    2  A    between atoms: _4  and  _21
REMARK    3  A    between atoms: _6  and  _7
REMARK    4  A    between atoms: _6  and  _21
REMARK    5  A    between atoms: _10  and  _11
REMARK    6  A    between atoms: _11  and  _12
REMARK    7  A    between atoms: _11  and  _13
REMARK    8  A    between atoms: _17  and  _37
REMARK    9  A    between atoms: _19  and  _25
REMARK   10  A    between atoms: _20  and  _24
REMARK   11  A    between atoms: _24  and  _25
REMARK   12  A    between atoms: _27  and  _28
REMARK   13  A    between atoms: _29  and  _30
REMARK   14  A    between atoms: _31  and  _33
REMARK   15  A    between atoms: _33  and  _34
REMARK   16  A    between atoms: _33  and  _35
REMARK   17  A    between atoms: _35  and  _36
REMARK   18  A    between atoms: _35  and  _37
REMARK   19  A    between atoms: _38  and  _40
REMARK                            x       y       z     vdW  Elec       q    Type
REMARK                         _______ _______ _______ _____ _____    ______ ____
ROOT
ATOM      1  C   UNL     1      -6.132   8.961  26.075  0.00  0.00    +0.163 C 
ENDROOT
BRANCH   1   2
ATOM      2  O   UNL     1      -6.241   8.242  27.315  0.00  0.00    -0.388 OA
ATOM      3  H   UNL     1      -6.624   8.814  27.984  0.00  0.00    +0.210 HD
ENDBRANCH   1   2
BRANCH   1   4
ATOM      4  C   UNL     1      -5.542   8.056  24.998  0.00  0.00    +0.141 C 
BRANCH   4   7
ATOM      5  C   UNL     1      -4.291   8.640  22.949  0.00  0.00    +0.401 C 
ATOM      6  O   UNL     1      -5.038   8.007  22.199  0.00  0.00    -0.226 OA
ATOM      7  N   UNL     1      -4.449   8.713  24.271  0.00  0.00    -0.279 N 
ATOM      8  H   UNL     1      -3.778   9.249  24.803  0.00  0.00    +0.152 HD
BRANCH   5   9
ATOM      9  O   UNL     1      -3.179   9.344  22.389  0.00  0.00    -0.444 OA
BRANCH   9  10
ATOM     10  C   UNL     1      -3.651  10.316  21.453  0.00  0.00    +0.292 C 
BRANCH  10  12
ATOM     11  N   UNL     1      -3.140  11.871  23.301  0.00  0.00    -0.131 NA
ATOM     12  C   UNL     1      -3.623  11.666  22.045  0.00  0.00    +0.121 A 
ATOM     13  C   UNL     1      -4.067  12.864  21.531  0.00  0.00    +0.143 A 
ATOM     14  N   UNL     1      -3.952  13.762  22.576  0.00  0.00    -0.219 N 
ATOM     15  N   UNL     1      -3.321  13.151  23.602  0.00  0.00    -0.060 NA
BRANCH  14  16
ATOM     16  C   UNL     1      -4.428  15.107  22.620  0.00  0.00    +0.070 A 
ATOM     17  C   UNL     1      -5.638  15.486  23.263  0.00  0.00    -0.019 A 
ATOM     18  C   UNL     1      -6.007  16.849  23.205  0.00  0.00    +0.006 A 
ATOM     19  C   UNL     1      -5.235  17.799  22.535  0.00  0.00    +0.000 A 
ATOM     20  C   UNL     1      -4.053  17.419  21.918  0.00  0.00    +0.002 A 
ATOM     21  C   UNL     1      -3.652  16.084  21.958  0.00  0.00    +0.028 A 
BRANCH  17  22
ATOM     22  C   UNL     1      -6.563  14.516  24.000  0.00  0.00    +0.015 C 
ATOM     23  C   UNL     1      -7.745  13.988  23.172  0.00  0.00    +0.012 C 
ATOM     24  C   UNL     1      -7.080  15.163  25.287  0.00  0.00    +0.012 C 
ENDBRANCH  17  22
ENDBRANCH  14  16
ENDBRANCH  10  12
ENDBRANCH   9  10
ENDBRANCH   5   9
ENDBRANCH   4   7
ENDBRANCH   1   4
BRANCH   1  25
ATOM     25  C   UNL     1      -5.249  10.209  26.239  0.00  0.00    +0.175 C 
BRANCH  25  26
ATOM     26  C   UNL     1      -5.233  10.721  27.687  0.00  0.00    +0.176 C 
ATOM     27  O   UNL     1      -5.731  12.087  27.683  0.00  0.00    -0.332 OA
ATOM     28  C   UNL     1      -5.888  12.708  29.002  0.00  0.00    +0.277 C 
ATOM     29  C   UNL     1      -4.559  12.637  29.795  0.00  0.00    +0.110 C 
ATOM     30  C   UNL     1      -3.974  11.209  29.799  0.00  0.00    +0.143 C 
ATOM     31  C   UNL     1      -3.858  10.659  28.377  0.00  0.00    +0.133 C 
BRANCH  31  32
ATOM     32  N   UNL     1      -3.381   9.267  28.400  0.00  0.00    -0.308 N 
ATOM     33  H   UNL     1      -3.923   8.592  28.921  0.00  0.00    +0.149 HD
ATOM     34  C   UNL     1      -2.280   8.838  27.777  0.00  0.00    +0.210 C 
ATOM     35  C   UNL     1      -1.462   9.897  27.014  0.00  0.00    +0.109 C 
ATOM     36  O   UNL     1      -1.913   7.663  27.802  0.00  0.00    -0.276 OA
ENDBRANCH  31  32
BRANCH  28  37
ATOM     37  C   UNL     1      -7.005  12.011  29.806  0.00  0.00    +0.414 C 
ATOM     38  O   UNL     1      -6.874  11.821  31.014  0.00  0.00    -0.240 OA
ATOM     39  O   UNL     1      -8.037  11.638  29.246  0.00  0.00    -0.240 OA
ENDBRANCH  28  37
BRANCH  30  40
ATOM     40  O   UNL     1      -2.682  11.219  30.407  0.00  0.00    -0.390 OA
ATOM     41  H   UNL     1      -2.270  10.359  30.299  0.00  0.00    +0.210 HD
ENDBRANCH  30  40
BRANCH  28  42
ATOM     42  O   UNL     1      -6.228  14.104  28.804  0.00  0.00    -0.343 OA
ATOM     43  C   UNL     1      -5.776  14.999  29.851  0.00  0.00    +0.198 C 
ENDBRANCH  28  42
ENDBRANCH  25  26
BRANCH  25  44
ATOM     44  O   UNL     1      -5.693  11.252  25.348  0.00  0.00    -0.387 OA
ATOM     45  H   UNL     1      -5.566  10.973  24.438  0.00  0.00    +0.210 HD
ENDBRANCH  25  44
ENDBRANCH   1  25
TORSDOF 15
