REMARK VINA RESULT:    -4.994      2.876      8.406
REMARK INTER + INTRA:         -11.524
REMARK INTER:                  -8.434
REMARK INTRA:                  -3.090
REMARK UNBOUND:                -2.589
REMARK  Name = lig_assembled_82.pdb
REMARK  19 active torsions:
REMARK  status: ('A' for Active; 'I' for Inactive)
REMARK    1  A    between atoms: _2  and  _9
REMARK    2  A    between atoms: _4  and  _22
REMARK    3  A    between atoms: _5  and  _16
REMARK    4  A    between atoms: _6  and  _7
REMARK    5  A    between atoms: _6  and  _22
REMARK    6  A    between atoms: _9  and  _10
REMARK    7  A    between atoms: _16  and  _17
REMARK    8  A    between atoms: _18  and  _38
REMARK    9  A    between atoms: _20  and  _26
REMARK   10  A    between atoms: _21  and  _25
REMARK   11  A    between atoms: _25  and  _26
REMARK   12  A    between atoms: _28  and  _29
REMARK   13  A    between atoms: _30  and  _31
REMARK   14  A    between atoms: _32  and  _34
REMARK   15  A    between atoms: _34  and  _35
REMARK   16  A    between atoms: _34  and  _36
REMARK   17  A    between atoms: _36  and  _37
REMARK   18  A    between atoms: _36  and  _38
REMARK   19  A    between atoms: _39  and  _41
REMARK                            x       y       z     vdW  Elec       q    Type
REMARK                         _______ _______ _______ _____ _____    ______ ____
ROOT
ATOM      1  C   UNL     1      -2.393   9.970  27.164  0.00  0.00    +0.163 C 
ENDROOT
BRANCH   1   2
ATOM      2  O   UNL     1      -1.231  10.042  26.322  0.00  0.00    -0.388 OA
ATOM      3  H   UNL     1      -1.208   9.278  25.741  0.00  0.00    +0.210 HD
ENDBRANCH   1   2
BRANCH   1   4
ATOM      4  C   UNL     1      -2.083   9.147  28.411  0.00  0.00    +0.141 C 
BRANCH   4   7
ATOM      5  C   UNL     1      -3.475   9.160  30.452  0.00  0.00    +0.401 C 
ATOM      6  O   UNL     1      -3.905   8.017  30.280  0.00  0.00    -0.226 OA
ATOM      7  N   UNL     1      -2.625   9.769  29.625  0.00  0.00    -0.279 N 
ATOM      8  H   UNL     1      -2.337  10.712  29.847  0.00  0.00    +0.152 HD
BRANCH   5   9
ATOM      9  O   UNL     1      -3.905   9.897  31.600  0.00  0.00    -0.444 OA
BRANCH   9  10
ATOM     10  C   UNL     1      -2.763  10.389  32.306  0.00  0.00    +0.292 C 
BRANCH  10  12
ATOM     11  N   UNL     1      -1.821  12.676  32.215  0.00  0.00    -0.131 NA
ATOM     12  C   UNL     1      -2.865  11.836  32.524  0.00  0.00    +0.120 A 
ATOM     13  C   UNL     1      -3.901  12.595  33.036  0.00  0.00    +0.137 A 
ATOM     14  N   UNL     1      -3.376  13.853  33.133  0.00  0.00    -0.247 N 
ATOM     15  N   UNL     1      -2.161  13.911  32.555  0.00  0.00    -0.065 NA
BRANCH  14  16
ATOM     16  C   UNL     1      -3.924  15.018  33.833  0.00  0.00    +0.176 C 
BRANCH  16  17
ATOM     17  C   UNL     1      -4.416  16.086  32.886  0.00  0.00    -0.049 C 
ATOM     18  C   UNL     1      -5.138  15.643  31.652  0.00  0.00    +0.023 C 
ATOM     19  C   UNL     1      -6.349  16.534  31.120  0.00  0.00    -0.025 C 
ATOM     20  C   UNL     1      -7.384  17.382  31.871  0.00  0.00    +0.012 C 
ATOM     21  C   UNL     1      -5.152  17.475  30.629  0.00  0.00    -0.000 C 
ATOM     22  C   UNL     1      -4.466  18.304  31.761  0.00  0.00    +0.031 C 
ATOM     23  C   UNL     1      -7.160  15.563  30.228  0.00  0.00    +0.012 C 
ATOM     24  C   UNL     1      -4.358  16.165  30.379  0.00  0.00    +0.012 C 
ATOM     25  C   UNL     1      -4.125  17.400  32.935  0.00  0.00    -0.025 C 
ENDBRANCH  16  17
ENDBRANCH  14  16
ENDBRANCH  10  12
ENDBRANCH   9  10
ENDBRANCH   5   9
ENDBRANCH   4   7
ENDBRANCH   1   4
BRANCH   1  26
ATOM     26  C   UNL     1      -3.578   9.338  26.414  0.00  0.00    +0.175 C 
BRANCH  26  27
ATOM     27  C   UNL     1      -4.310  10.357  25.527  0.00  0.00    +0.176 C 
ATOM     28  O   UNL     1      -3.456  10.653  24.388  0.00  0.00    -0.332 OA
ATOM     29  C   UNL     1      -4.038  11.534  23.371  0.00  0.00    +0.277 C 
ATOM     30  C   UNL     1      -4.527  12.854  24.016  0.00  0.00    +0.110 C 
ATOM     31  C   UNL     1      -5.413  12.591  25.251  0.00  0.00    +0.143 C 
ATOM     32  C   UNL     1      -4.712  11.661  26.241  0.00  0.00    +0.133 C 
BRANCH  32  33
ATOM     33  N   UNL     1      -5.600  11.348  27.372  0.00  0.00    -0.308 N 
ATOM     34  H   UNL     1      -6.388  10.741  27.199  0.00  0.00    +0.149 HD
ATOM     35  C   UNL     1      -5.431  11.815  28.613  0.00  0.00    +0.210 C 
ATOM     36  C   UNL     1      -4.236  12.759  28.838  0.00  0.00    +0.109 C 
ATOM     37  O   UNL     1      -6.183  11.524  29.544  0.00  0.00    -0.276 OA
ENDBRANCH  32  33
BRANCH  29  38
ATOM     38  C   UNL     1      -5.218  10.841  22.657  0.00  0.00    +0.414 C 
ATOM     39  O   UNL     1      -6.279  11.440  22.488  0.00  0.00    -0.240 OA
ATOM     40  O   UNL     1      -5.108   9.684  22.251  0.00  0.00    -0.240 OA
ENDBRANCH  29  38
BRANCH  29  41
ATOM     41  O   UNL     1      -3.002  11.852  22.406  0.00  0.00    -0.343 OA
ATOM     42  C   UNL     1      -3.468  12.520  21.207  0.00  0.00    +0.198 C 
ENDBRANCH  29  41
BRANCH  31  43
ATOM     43  O   UNL     1      -5.715  13.827  25.900  0.00  0.00    -0.390 OA
ATOM     44  H   UNL     1      -4.975  14.430  25.802  0.00  0.00    +0.210 HD
ENDBRANCH  31  43
ENDBRANCH  26  27
BRANCH  26  45
ATOM     45  O   UNL     1      -4.499   8.743  27.350  0.00  0.00    -0.387 OA
ATOM     46  H   UNL     1      -4.008   8.259  28.018  0.00  0.00    +0.210 HD
ENDBRANCH  26  45
ENDBRANCH   1  26
TORSDOF 15
