REMARK VINA RESULT:    -4.501      3.293      5.643
REMARK INTER + INTRA:         -10.703
REMARK INTER:                  -8.362
REMARK INTRA:                  -2.341
REMARK UNBOUND:                -2.913
REMARK  Name = lig_assembled_93.pdb
REMARK  16 active torsions:
REMARK  status: ('A' for Active; 'I' for Inactive)
REMARK    1  A    between atoms: _2  and  _9
REMARK    2  A    between atoms: _4  and  _18
REMARK    3  A    between atoms: _6  and  _7
REMARK    4  A    between atoms: _6  and  _18
REMARK    5  A    between atoms: _14  and  _34
REMARK    6  A    between atoms: _16  and  _22
REMARK    7  A    between atoms: _17  and  _21
REMARK    8  A    between atoms: _21  and  _22
REMARK    9  A    between atoms: _24  and  _25
REMARK   10  A    between atoms: _26  and  _27
REMARK   11  A    between atoms: _28  and  _30
REMARK   12  A    between atoms: _30  and  _31
REMARK   13  A    between atoms: _30  and  _32
REMARK   14  A    between atoms: _32  and  _33
REMARK   15  A    between atoms: _32  and  _34
REMARK   16  A    between atoms: _35  and  _37
REMARK                            x       y       z     vdW  Elec       q    Type
REMARK                         _______ _______ _______ _____ _____    ______ ____
ROOT
ATOM      1  C   UNL     1      -4.186   8.940  23.783  0.00  0.00    +0.163 C 
ENDROOT
BRANCH   1   2
ATOM      2  O   UNL     1      -3.667   8.056  22.776  0.00  0.00    -0.388 OA
ATOM      3  H   UNL     1      -3.225   8.570  22.096  0.00  0.00    +0.210 HD
ENDBRANCH   1   2
BRANCH   1   4
ATOM      4  C   UNL     1      -4.309   8.202  25.112  0.00  0.00    +0.141 C 
BRANCH   4   7
ATOM      5  C   UNL     1      -2.605   9.063  26.681  0.00  0.00    +0.401 C 
ATOM      6  O   UNL     1      -1.687   8.398  26.197  0.00  0.00    -0.226 OA
ATOM      7  N   UNL     1      -3.863   9.029  26.241  0.00  0.00    -0.279 N 
ATOM      8  H   UNL     1      -4.549   9.604  26.710  0.00  0.00    +0.152 HD
BRANCH   5   9
ATOM      9  O   UNL     1      -2.328   9.928  27.786  0.00  0.00    -0.444 OA
BRANCH   9  10
ATOM     10  C   UNL     1      -3.127   9.541  28.907  0.00  0.00    +0.292 C 
BRANCH  10  12
ATOM     11  N   UNL     1      -4.668  10.588  30.525  0.00  0.00    -0.131 NA
ATOM     12  C   UNL     1      -3.812  10.716  29.478  0.00  0.00    +0.121 A 
ATOM     13  C   UNL     1      -3.738  12.043  29.124  0.00  0.00    +0.143 A 
ATOM     14  N   UNL     1      -4.568  12.711  30.009  0.00  0.00    -0.219 N 
ATOM     15  N   UNL     1      -5.122  11.794  30.832  0.00  0.00    -0.060 NA
BRANCH  14  16
ATOM     16  C   UNL     1      -4.821  14.116  30.093  0.00  0.00    +0.080 A 
ATOM     17  C   UNL     1      -3.910  14.902  30.839  0.00  0.00    +0.029 A 
ATOM     18  C   UNL     1      -4.082  16.280  30.994  0.00  0.00    +0.002 A 
ATOM     19  C   UNL     1      -5.166  16.913  30.410  0.00  0.00    +0.001 A 
ATOM     20  C   UNL     1      -6.075  16.166  29.664  0.00  0.00    +0.016 A 
ATOM     21  C   UNL     1      -5.917  14.774  29.495  0.00  0.00    +0.039 A 
ATOM     22  I   UNL     1      -7.453  13.927  28.311  0.00  0.00    -0.042 I 
ENDBRANCH  14  16
ENDBRANCH  10  12
ENDBRANCH   9  10
ENDBRANCH   5   9
ENDBRANCH   4   7
ENDBRANCH   1   4
BRANCH   1  23
ATOM     23  C   UNL     1      -5.562   9.494  23.374  0.00  0.00    +0.175 C 
BRANCH  23  24
ATOM     24  C   UNL     1      -5.447  10.611  22.327  0.00  0.00    +0.176 C 
ATOM     25  O   UNL     1      -5.044  10.005  21.068  0.00  0.00    -0.332 OA
ATOM     26  C   UNL     1      -4.985  10.912  19.918  0.00  0.00    +0.277 C 
ATOM     27  C   UNL     1      -4.073  12.124  20.230  0.00  0.00    +0.110 C 
ATOM     28  C   UNL     1      -4.443  12.783  21.576  0.00  0.00    +0.143 C 
ATOM     29  C   UNL     1      -4.478  11.748  22.702  0.00  0.00    +0.133 C 
BRANCH  29  30
ATOM     30  N   UNL     1      -4.916  12.372  23.961  0.00  0.00    -0.308 N 
ATOM     31  H   UNL     1      -5.894  12.604  24.056  0.00  0.00    +0.149 HD
ATOM     32  C   UNL     1      -4.105  12.650  24.985  0.00  0.00    +0.210 C 
ATOM     33  C   UNL     1      -2.615  12.307  24.798  0.00  0.00    +0.109 C 
ATOM     34  O   UNL     1      -4.502  13.159  26.033  0.00  0.00    -0.276 OA
ENDBRANCH  29  30
BRANCH  26  35
ATOM     35  C   UNL     1      -6.395  11.412  19.542  0.00  0.00    +0.414 C 
ATOM     36  O   UNL     1      -6.538  12.265  18.667  0.00  0.00    -0.240 OA
ATOM     37  O   UNL     1      -7.389  10.963  20.114  0.00  0.00    -0.240 OA
ENDBRANCH  26  35
BRANCH  28  38
ATOM     38  O   UNL     1      -3.487  13.794  21.896  0.00  0.00    -0.390 OA
ATOM     39  H   UNL     1      -2.911  13.481  22.598  0.00  0.00    +0.210 HD
ENDBRANCH  28  38
BRANCH  26  40
ATOM     40  O   UNL     1      -4.411  10.185  18.801  0.00  0.00    -0.343 OA
ATOM     41  C   UNL     1      -5.195   9.056  18.339  0.00  0.00    +0.198 C 
ENDBRANCH  26  40
ENDBRANCH  23  24
BRANCH  23  42
ATOM     42  O   UNL     1      -6.271   9.971  24.534  0.00  0.00    -0.387 OA
ATOM     43  H   UNL     1      -7.147   9.579  24.558  0.00  0.00    +0.210 HD
ENDBRANCH  23  42
ENDBRANCH   1  23
TORSDOF 14
