REMARK VINA RESULT:    -4.661      2.367      8.668
REMARK INTER + INTRA:         -12.626
REMARK INTER:                  -9.124
REMARK INTRA:                  -3.502
REMARK UNBOUND:                -3.062
REMARK  Name = lig_assembled_74.pdb
REMARK  24 active torsions:
REMARK  status: ('A' for Active; 'I' for Inactive)
REMARK    1  A    between atoms: _2  and  _9
REMARK    2  A    between atoms: _4  and  _22
REMARK    3  A    between atoms: _5  and  _14
REMARK    4  A    between atoms: _6  and  _7
REMARK    5  A    between atoms: _6  and  _22
REMARK    6  A    between atoms: _9  and  _10
REMARK    7  A    between atoms: _10  and  _11
REMARK    8  A    between atoms: _10  and  _13
REMARK    9  A    between atoms: _11  and  _12
REMARK   10  A    between atoms: _12  and  _16
REMARK   11  A    between atoms: _13  and  _14
REMARK   12  A    between atoms: _14  and  _15
REMARK   13  A    between atoms: _18  and  _38
REMARK   14  A    between atoms: _20  and  _26
REMARK   15  A    between atoms: _21  and  _25
REMARK   16  A    between atoms: _25  and  _26
REMARK   17  A    between atoms: _28  and  _29
REMARK   18  A    between atoms: _30  and  _31
REMARK   19  A    between atoms: _32  and  _34
REMARK   20  A    between atoms: _34  and  _35
REMARK   21  A    between atoms: _34  and  _36
REMARK   22  A    between atoms: _36  and  _37
REMARK   23  A    between atoms: _36  and  _38
REMARK   24  A    between atoms: _39  and  _41
REMARK                            x       y       z     vdW  Elec       q    Type
REMARK                         _______ _______ _______ _____ _____    ______ ____
ROOT
ATOM      1  C   UNL     1      -2.613  11.672  25.999  0.00  0.00    +0.163 C 
ENDROOT
BRANCH   1   2
ATOM      2  O   UNL     1      -2.103  12.277  24.800  0.00  0.00    -0.388 OA
ATOM      3  H   UNL     1      -2.760  12.211  24.103  0.00  0.00    +0.210 HD
ENDBRANCH   1   2
BRANCH   1   4
ATOM      4  C   UNL     1      -4.125  11.412  25.884  0.00  0.00    +0.175 C 
BRANCH   4   5
ATOM      5  C   UNL     1      -4.501  10.778  24.536  0.00  0.00    +0.176 C 
ATOM      6  O   UNL     1      -4.940  11.843  23.648  0.00  0.00    -0.332 OA
ATOM      7  C   UNL     1      -5.241  11.436  22.272  0.00  0.00    +0.277 C 
ATOM      8  C   UNL     1      -6.278  10.286  22.263  0.00  0.00    +0.110 C 
ATOM      9  C   UNL     1      -5.871   9.144  23.217  0.00  0.00    +0.143 C 
ATOM     10  C   UNL     1      -5.577   9.680  24.619  0.00  0.00    +0.133 C 
BRANCH  10  11
ATOM     11  N   UNL     1      -5.107   8.596  25.496  0.00  0.00    -0.308 N 
ATOM     12  H   UNL     1      -4.284   8.083  25.212  0.00  0.00    +0.149 HD
ATOM     13  C   UNL     1      -5.696   8.246  26.643  0.00  0.00    +0.210 C 
ATOM     14  C   UNL     1      -6.963   9.030  27.035  0.00  0.00    +0.109 C 
ATOM     15  O   UNL     1      -5.271   7.344  27.365  0.00  0.00    -0.276 OA
ENDBRANCH  10  11
BRANCH   7  16
ATOM     16  C   UNL     1      -3.960  10.981  21.543  0.00  0.00    +0.414 C 
ATOM     17  O   UNL     1      -2.858  11.380  21.918  0.00  0.00    -0.240 OA
ATOM     18  O   UNL     1      -4.028  10.216  20.580  0.00  0.00    -0.240 OA
ENDBRANCH   7  16
BRANCH   9  19
ATOM     19  O   UNL     1      -6.923   8.181  23.292  0.00  0.00    -0.390 OA
ATOM     20  H   UNL     1      -7.291   8.040  22.417  0.00  0.00    +0.210 HD
ENDBRANCH   9  19
BRANCH   7  21
ATOM     21  O   UNL     1      -5.816  12.576  21.583  0.00  0.00    -0.343 OA
ATOM     22  C   UNL     1      -5.593  13.857  22.226  0.00  0.00    +0.198 C 
ENDBRANCH   7  21
ENDBRANCH   4   5
BRANCH   4  23
ATOM     23  O   UNL     1      -4.856  12.640  26.076  0.00  0.00    -0.387 OA
ATOM     24  H   UNL     1      -5.797  12.470  25.984  0.00  0.00    +0.210 HD
ENDBRANCH   4  23
ENDBRANCH   1   4
BRANCH   1  25
ATOM     25  C   UNL     1      -1.890  10.357  26.269  0.00  0.00    +0.141 C 
BRANCH  25  28
ATOM     26  C   UNL     1      -1.856   8.744  28.141  0.00  0.00    +0.401 C 
ATOM     27  O   UNL     1      -1.782   7.754  27.410  0.00  0.00    -0.226 OA
ATOM     28  N   UNL     1      -1.917   9.999  27.693  0.00  0.00    -0.279 N 
ATOM     29  H   UNL     1      -1.986  10.745  28.370  0.00  0.00    +0.152 HD
BRANCH  26  30
ATOM     30  O   UNL     1      -1.885   8.561  29.559  0.00  0.00    -0.444 OA
BRANCH  30  31
ATOM     31  C   UNL     1      -3.128   7.965  29.939  0.00  0.00    +0.292 C 
BRANCH  31  33
ATOM     32  N   UNL     1      -3.685   8.999  32.127  0.00  0.00    -0.131 NA
ATOM     33  C   UNL     1      -3.914   8.889  30.781  0.00  0.00    +0.120 A 
ATOM     34  C   UNL     1      -4.876   9.804  30.413  0.00  0.00    +0.137 A 
ATOM     35  N   UNL     1      -5.052  10.555  31.540  0.00  0.00    -0.251 N 
ATOM     36  N   UNL     1      -4.410  10.009  32.589  0.00  0.00    -0.065 NA
BRANCH  35  37
ATOM     37  C   UNL     1      -5.525  11.924  31.609  0.00  0.00    +0.149 C 
BRANCH  37  38
ATOM     38  C   UNL     1      -4.491  13.006  31.228  0.00  0.00    +0.021 C 
BRANCH  38  39
ATOM     39  C   UNL     1      -3.610  13.457  32.411  0.00  0.00    +0.125 C 
BRANCH  39  40
ATOM     40  C   UNL     1      -2.145  13.092  32.286  0.00  0.00    +0.305 C 
ATOM     41  O   UNL     1      -1.223  13.892  32.280  0.00  0.00    -0.251 OA
BRANCH  40  42
ATOM     42  O   UNL     1      -1.935  11.763  32.245  0.00  0.00    -0.481 OA
ATOM     43  H   UNL     1      -2.350  11.251  32.962  0.00  0.00    +0.295 HD
ENDBRANCH  40  42
ENDBRANCH  39  40
ENDBRANCH  38  39
BRANCH  38  44
ATOM     44  C   UNL     1      -5.225  14.189  30.531  0.00  0.00    +0.009 C 
BRANCH  44  45
ATOM     45  C   UNL     1      -5.171  15.544  31.267  0.00  0.00    -0.017 C 
ATOM     46  C   UNL     1      -4.785  16.694  30.334  0.00  0.00    +0.007 C 
ATOM     47  C   UNL     1      -6.524  15.860  31.914  0.00  0.00    +0.007 C 
ENDBRANCH  44  45
ENDBRANCH  38  44
ENDBRANCH  37  38
ENDBRANCH  35  37
ENDBRANCH  31  33
ENDBRANCH  30  31
ENDBRANCH  26  30
ENDBRANCH  25  28
ENDBRANCH   1  25
TORSDOF 20
