REMARK VINA RESULT:    -5.340      6.915     12.276
REMARK INTER + INTRA:         -11.264
REMARK INTER:                  -9.311
REMARK INTRA:                  -1.953
REMARK UNBOUND:                -2.334
REMARK  Name = lig_assembled_65.pdb
REMARK  16 active torsions:
REMARK  status: ('A' for Active; 'I' for Inactive)
REMARK    1  A    between atoms: _8  and  _20
REMARK    2  A    between atoms: _9  and  _15
REMARK    3  A    between atoms: _10  and  _11
REMARK    4  A    between atoms: _10  and  _20
REMARK    5  A    between atoms: _16  and  _36
REMARK    6  A    between atoms: _18  and  _24
REMARK    7  A    between atoms: _19  and  _23
REMARK    8  A    between atoms: _23  and  _24
REMARK    9  A    between atoms: _26  and  _27
REMARK   10  A    between atoms: _28  and  _29
REMARK   11  A    between atoms: _30  and  _32
REMARK   12  A    between atoms: _32  and  _33
REMARK   13  A    between atoms: _32  and  _34
REMARK   14  A    between atoms: _34  and  _35
REMARK   15  A    between atoms: _34  and  _36
REMARK   16  A    between atoms: _37  and  _39
REMARK                            x       y       z     vdW  Elec       q    Type
REMARK                         _______ _______ _______ _____ _____    ______ ____
ROOT
ATOM      1  C   UNL     1      -3.263  11.812  25.068  0.00  0.00    +0.163 C 
ENDROOT
BRANCH   1   2
ATOM      2  O   UNL     1      -2.095  10.976  25.022  0.00  0.00    -0.388 OA
ATOM      3  H   UNL     1      -2.226  10.210  25.586  0.00  0.00    +0.210 HD
ENDBRANCH   1   2
BRANCH   1   4
ATOM      4  C   UNL     1      -2.990  13.130  24.350  0.00  0.00    +0.141 C 
BRANCH   4   7
ATOM      5  C   UNL     1      -4.864  13.171  22.740  0.00  0.00    +0.401 C 
ATOM      6  O   UNL     1      -5.736  13.178  23.612  0.00  0.00    -0.226 OA
ATOM      7  N   UNL     1      -3.555  13.142  22.995  0.00  0.00    -0.279 N 
ATOM      8  H   UNL     1      -2.917  13.129  22.212  0.00  0.00    +0.152 HD
BRANCH   5   9
ATOM      9  O   UNL     1      -5.256  13.190  21.365  0.00  0.00    -0.444 OA
BRANCH   9  10
ATOM     10  C   UNL     1      -6.062  12.043  21.083  0.00  0.00    +0.292 C 
BRANCH  10  12
ATOM     11  N   UNL     1      -5.430   9.939  19.940  0.00  0.00    -0.131 NA
ATOM     12  C   UNL     1      -5.520  11.304  19.928  0.00  0.00    +0.121 A 
ATOM     13  C   UNL     1      -5.042  11.773  18.727  0.00  0.00    +0.149 A 
ATOM     14  N   UNL     1      -4.657  10.646  18.032  0.00  0.00    -0.155 N 
ATOM     15  C   UNL     1      -4.077  10.594  16.731  0.00  0.00    +0.416 C 
ATOM     16  N   UNL     1      -3.770   9.399  16.214  0.00  0.00    +0.041 NA
ATOM     17  C   UNL     1      -3.216   9.432  15.004  0.00  0.00    +0.339 C 
ATOM     18  C   UNL     1      -2.838   8.127  14.378  0.00  0.00    +0.149 C 
ATOM     19  N   UNL     1      -2.966  10.548  14.318  0.00  0.00    +0.007 NA
ATOM     20  C   UNL     1      -3.295  11.677  14.925  0.00  0.00    +0.386 C 
ATOM     21  N   UNL     1      -3.042  12.856  14.255  0.00  0.00    -0.296 N 
ATOM     22  H   UNL     1      -2.972  12.692  13.259  0.00  0.00    +0.148 HD
ATOM     23  H   UNL     1      -3.656  13.594  14.565  0.00  0.00    +0.148 HD
ATOM     24  N   UNL     1      -3.868  11.765  16.112  0.00  0.00    -0.290 NA
ATOM     25  N   UNL     1      -4.909   9.545  18.784  0.00  0.00    -0.055 NA
ENDBRANCH  10  12
ENDBRANCH   9  10
ENDBRANCH   5   9
ENDBRANCH   4   7
ENDBRANCH   1   4
BRANCH   1  26
ATOM     26  C   UNL     1      -3.679  12.095  26.521  0.00  0.00    +0.175 C 
BRANCH  26  27
ATOM     27  C   UNL     1      -3.393  10.904  27.447  0.00  0.00    +0.176 C 
ATOM     28  O   UNL     1      -4.004   9.723  26.858  0.00  0.00    -0.332 OA
ATOM     29  C   UNL     1      -3.744   8.460  27.555  0.00  0.00    +0.277 C 
ATOM     30  C   UNL     1      -4.150   8.570  29.045  0.00  0.00    +0.110 C 
ATOM     31  C   UNL     1      -3.550   9.829  29.707  0.00  0.00    +0.143 C 
ATOM     32  C   UNL     1      -3.879  11.084  28.898  0.00  0.00    +0.133 C 
BRANCH  32  33
ATOM     33  N   UNL     1      -3.229  12.264  29.490  0.00  0.00    -0.308 N 
ATOM     34  H   UNL     1      -2.219  12.294  29.494  0.00  0.00    +0.149 HD
ATOM     35  C   UNL     1      -3.887  13.297  30.024  0.00  0.00    +0.210 C 
ATOM     36  C   UNL     1      -5.424  13.208  30.026  0.00  0.00    +0.109 C 
ATOM     37  O   UNL     1      -3.316  14.279  30.500  0.00  0.00    -0.276 OA
ENDBRANCH  32  33
BRANCH  29  38
ATOM     38  C   UNL     1      -2.253   8.076  27.453  0.00  0.00    +0.414 C 
ATOM     39  O   UNL     1      -1.607   8.357  26.444  0.00  0.00    -0.240 OA
ATOM     40  O   UNL     1      -1.696   7.487  28.380  0.00  0.00    -0.240 OA
ENDBRANCH  29  38
BRANCH  29  41
ATOM     41  O   UNL     1      -4.556   7.430  26.935  0.00  0.00    -0.343 OA
ATOM     42  C   UNL     1      -4.989   7.723  25.582  0.00  0.00    +0.198 C 
ENDBRANCH  29  41
BRANCH  31  43
ATOM     43  O   UNL     1      -4.069   9.972  31.029  0.00  0.00    -0.390 OA
ATOM     44  H   UNL     1      -3.350  10.152  31.639  0.00  0.00    +0.210 HD
ENDBRANCH  31  43
ENDBRANCH  26  27
BRANCH  26  45
ATOM     45  O   UNL     1      -5.076  12.445  26.578  0.00  0.00    -0.387 OA
ATOM     46  H   UNL     1      -5.250  13.171  25.975  0.00  0.00    +0.210 HD
ENDBRANCH  26  45
ENDBRANCH   1  26
TORSDOF 13
