REMARK VINA RESULT:    -5.179      5.175     12.965
REMARK INTER + INTRA:         -12.280
REMARK INTER:                 -10.372
REMARK INTRA:                  -1.908
REMARK UNBOUND:                -2.711
REMARK  Name = lig_assembled_36.pdb
REMARK  18 active torsions:
REMARK  status: ('A' for Active; 'I' for Inactive)
REMARK    1  A    between atoms: _2  and  _10
REMARK    2  A    between atoms: _5  and  _21
REMARK    3  A    between atoms: _7  and  _8
REMARK    4  A    between atoms: _7  and  _21
REMARK    5  A    between atoms: _10  and  _11
REMARK    6  A    between atoms: _14  and  _15
REMARK    7  A    between atoms: _17  and  _37
REMARK    8  A    between atoms: _19  and  _25
REMARK    9  A    between atoms: _20  and  _24
REMARK   10  A    between atoms: _24  and  _25
REMARK   11  A    between atoms: _27  and  _28
REMARK   12  A    between atoms: _29  and  _30
REMARK   13  A    between atoms: _31  and  _33
REMARK   14  A    between atoms: _33  and  _34
REMARK   15  A    between atoms: _33  and  _35
REMARK   16  A    between atoms: _35  and  _36
REMARK   17  A    between atoms: _35  and  _37
REMARK   18  A    between atoms: _38  and  _40
REMARK                            x       y       z     vdW  Elec       q    Type
REMARK                         _______ _______ _______ _____ _____    ______ ____
ROOT
ATOM      1  C   UNL     1      -3.939  12.105  14.304  0.00  0.00    +0.163 C 
ENDROOT
BRANCH   1   2
ATOM      2  O   UNL     1      -2.936  12.131  15.332  0.00  0.00    -0.388 OA
ATOM      3  H   UNL     1      -2.960  12.979  15.783  0.00  0.00    +0.210 HD
ENDBRANCH   1   2
BRANCH   1   4
ATOM      4  C   UNL     1      -3.404  11.429  13.030  0.00  0.00    +0.175 C 
BRANCH   4   5
ATOM      5  C   UNL     1      -3.288   9.906  13.190  0.00  0.00    +0.176 C 
ATOM      6  O   UNL     1      -2.173   9.633  14.083  0.00  0.00    -0.332 OA
ATOM      7  C   UNL     1      -1.975   8.225  14.438  0.00  0.00    +0.277 C 
ATOM      8  C   UNL     1      -1.847   7.358  13.162  0.00  0.00    +0.110 C 
ATOM      9  C   UNL     1      -2.994   7.636  12.167  0.00  0.00    +0.143 C 
ATOM     10  C   UNL     1      -3.113   9.131  11.870  0.00  0.00    +0.133 C 
BRANCH  10  11
ATOM     11  N   UNL     1      -4.263   9.392  10.991  0.00  0.00    -0.308 N 
ATOM     12  H   UNL     1      -5.159   9.013  11.261  0.00  0.00    +0.149 HD
ATOM     13  C   UNL     1      -4.199  10.097   9.858  0.00  0.00    +0.210 C 
ATOM     14  C   UNL     1      -2.813  10.638   9.459  0.00  0.00    +0.109 C 
ATOM     15  O   UNL     1      -5.182  10.312   9.148  0.00  0.00    -0.276 OA
ENDBRANCH  10  11
BRANCH   7  16
ATOM     16  C   UNL     1      -3.147   7.708  15.298  0.00  0.00    +0.414 C 
ATOM     17  O   UNL     1      -3.548   8.364  16.258  0.00  0.00    -0.240 OA
ATOM     18  O   UNL     1      -3.691   6.635  15.032  0.00  0.00    -0.240 OA
ENDBRANCH   7  16
BRANCH   7  19
ATOM     19  O   UNL     1      -0.737   8.121  15.187  0.00  0.00    -0.343 OA
ATOM     20  C   UNL     1      -0.602   6.917  15.984  0.00  0.00    +0.198 C 
ENDBRANCH   7  19
BRANCH   9  21
ATOM     21  O   UNL     1      -2.756   6.931  10.948  0.00  0.00    -0.390 OA
ATOM     22  H   UNL     1      -2.463   7.548  10.273  0.00  0.00    +0.210 HD
ENDBRANCH   9  21
ENDBRANCH   4   5
BRANCH   4  23
ATOM     23  O   UNL     1      -2.125  11.989  12.670  0.00  0.00    -0.387 OA
ATOM     24  H   UNL     1      -2.019  11.957  11.716  0.00  0.00    +0.210 HD
ENDBRANCH   4  23
ENDBRANCH   1   4
BRANCH   1  25
ATOM     25  C   UNL     1      -5.174  11.358  14.797  0.00  0.00    +0.141 C 
BRANCH  25  28
ATOM     26  C   UNL     1      -5.649  11.156  17.213  0.00  0.00    +0.401 C 
ATOM     27  O   UNL     1      -6.516  12.033  17.212  0.00  0.00    -0.226 OA
ATOM     28  N   UNL     1      -4.967  10.780  16.131  0.00  0.00    -0.279 N 
ATOM     29  H   UNL     1      -4.268  10.058  16.234  0.00  0.00    +0.152 HD
BRANCH  26  30
ATOM     30  O   UNL     1      -5.337  10.490  18.440  0.00  0.00    -0.444 OA
BRANCH  30  31
ATOM     31  C   UNL     1      -6.058  11.102  19.513  0.00  0.00    +0.292 C 
BRANCH  31  33
ATOM     32  N   UNL     1      -3.771  11.503  20.378  0.00  0.00    -0.131 NA
ATOM     33  C   UNL     1      -5.121  11.717  20.472  0.00  0.00    +0.120 A 
ATOM     34  C   UNL     1      -5.372  12.561  21.530  0.00  0.00    +0.137 A 
ATOM     35  N   UNL     1      -4.128  12.899  21.976  0.00  0.00    -0.247 N 
ATOM     36  N   UNL     1      -3.172  12.219  21.318  0.00  0.00    -0.065 NA
BRANCH  35  37
ATOM     37  C   UNL     1      -3.779  13.863  23.001  0.00  0.00    +0.180 C 
BRANCH  37  38
ATOM     38  C   UNL     1      -3.740  13.221  24.368  0.00  0.00    -0.026 A 
ATOM     39  C   UNL     1      -4.833  13.320  25.242  0.00  0.00    +0.007 A 
ATOM     40  C   UNL     1      -4.791  12.718  26.504  0.00  0.00    +0.019 A 
ATOM     41  C   UNL     1      -3.654  12.014  26.910  0.00  0.00    +0.052 A 
ATOM     42  C   UNL     1      -2.552  11.930  26.056  0.00  0.00    +0.019 A 
ATOM     43  C   UNL     1      -2.593  12.533  24.795  0.00  0.00    +0.007 A 
BRANCH  41  44
ATOM     44  C   UNL     1      -3.621  11.379  28.198  0.00  0.00    +0.099 C 
ATOM     45  N   UNL     1      -3.601  10.857  29.233  0.00  0.00    -0.191 NA
ENDBRANCH  41  44
ENDBRANCH  37  38
ENDBRANCH  35  37
ENDBRANCH  31  33
ENDBRANCH  30  31
ENDBRANCH  26  30
ENDBRANCH  25  28
ENDBRANCH   1  25
TORSDOF 16
