REMARK VINA RESULT:    -4.887      4.698     10.237
REMARK INTER + INTRA:         -10.963
REMARK INTER:                  -8.186
REMARK INTRA:                  -2.777
REMARK UNBOUND:                -2.505
REMARK  Name = lig_assembled_3.pdb
REMARK  16 active torsions:
REMARK  status: ('A' for Active; 'I' for Inactive)
REMARK    1  A    between atoms: _2  and  _9
REMARK    2  A    between atoms: _4  and  _18
REMARK    3  A    between atoms: _6  and  _7
REMARK    4  A    between atoms: _6  and  _18
REMARK    5  A    between atoms: _14  and  _34
REMARK    6  A    between atoms: _16  and  _22
REMARK    7  A    between atoms: _17  and  _21
REMARK    8  A    between atoms: _21  and  _22
REMARK    9  A    between atoms: _24  and  _25
REMARK   10  A    between atoms: _26  and  _27
REMARK   11  A    between atoms: _28  and  _30
REMARK   12  A    between atoms: _30  and  _31
REMARK   13  A    between atoms: _30  and  _32
REMARK   14  A    between atoms: _32  and  _33
REMARK   15  A    between atoms: _32  and  _34
REMARK   16  A    between atoms: _35  and  _37
REMARK                            x       y       z     vdW  Elec       q    Type
REMARK                         _______ _______ _______ _____ _____    ______ ____
ROOT
ATOM      1  C   UNL     1      -5.106   7.290  23.809  0.00  0.00    +0.163 C 
ENDROOT
BRANCH   1   2
ATOM      2  O   UNL     1      -3.942   6.870  24.541  0.00  0.00    -0.388 OA
ATOM      3  H   UNL     1      -3.936   5.912  24.612  0.00  0.00    +0.210 HD
ENDBRANCH   1   2
BRANCH   1   4
ATOM      4  C   UNL     1      -5.349   6.351  22.632  0.00  0.00    +0.141 C 
BRANCH   4   7
ATOM      5  C   UNL     1      -5.974   6.868  20.298  0.00  0.00    +0.401 C 
ATOM      6  O   UNL     1      -5.018   6.261  19.809  0.00  0.00    -0.226 OA
ATOM      7  N   UNL     1      -6.202   6.967  21.608  0.00  0.00    -0.279 N 
ATOM      8  H   UNL     1      -7.007   7.494  21.913  0.00  0.00    +0.152 HD
BRANCH   5   9
ATOM      9  O   UNL     1      -6.904   7.517  19.427  0.00  0.00    -0.444 OA
BRANCH   9  10
ATOM     10  C   UNL     1      -7.391   8.708  20.051  0.00  0.00    +0.292 C 
BRANCH  10  12
ATOM     11  N   UNL     1      -7.509  11.132  19.572  0.00  0.00    -0.131 NA
ATOM     12  C   UNL     1      -7.073   9.887  19.223  0.00  0.00    +0.121 A 
ATOM     13  C   UNL     1      -6.342   9.976  18.061  0.00  0.00    +0.143 A 
ATOM     14  N   UNL     1      -6.335  11.315  17.744  0.00  0.00    -0.220 N 
ATOM     15  N   UNL     1      -7.063  11.993  18.668  0.00  0.00    -0.060 NA
BRANCH  14  16
ATOM     16  C   UNL     1      -5.685  11.971  16.667  0.00  0.00    +0.067 A 
ATOM     17  C   UNL     1      -4.314  12.260  16.722  0.00  0.00    +0.028 A 
ATOM     18  C   UNL     1      -3.699  12.933  15.663  0.00  0.00    +0.002 A 
ATOM     19  C   UNL     1      -4.443  13.317  14.549  0.00  0.00    +0.000 A 
ATOM     20  C   UNL     1      -5.804  13.025  14.485  0.00  0.00    +0.002 A 
ATOM     21  C   UNL     1      -6.427  12.352  15.539  0.00  0.00    +0.028 A 
ENDBRANCH  14  16
ENDBRANCH  10  12
ENDBRANCH   9  10
ENDBRANCH   5   9
ENDBRANCH   4   7
ENDBRANCH   1   4
BRANCH   1  22
ATOM     22  C   UNL     1      -4.941   8.730  23.293  0.00  0.00    +0.175 C 
BRANCH  22  23
ATOM     23  C   UNL     1      -3.904   9.520  24.105  0.00  0.00    +0.176 C 
ATOM     24  O   UNL     1      -4.269   9.424  25.510  0.00  0.00    -0.332 OA
ATOM     25  C   UNL     1      -3.327  10.034  26.452  0.00  0.00    +0.277 C 
ATOM     26  C   UNL     1      -3.070  11.515  26.078  0.00  0.00    +0.110 C 
ATOM     27  C   UNL     1      -2.710  11.671  24.585  0.00  0.00    +0.143 C 
ATOM     28  C   UNL     1      -3.755  10.997  23.696  0.00  0.00    +0.133 C 
BRANCH  28  29
ATOM     29  N   UNL     1      -3.356  11.077  22.282  0.00  0.00    -0.308 N 
ATOM     30  H   UNL     1      -2.543  10.553  21.991  0.00  0.00    +0.149 HD
ATOM     31  C   UNL     1      -3.999  11.796  21.358  0.00  0.00    +0.210 C 
ATOM     32  C   UNL     1      -5.220  12.604  21.838  0.00  0.00    +0.109 C 
ATOM     33  O   UNL     1      -3.651  11.833  20.177  0.00  0.00    -0.276 OA
ENDBRANCH  28  29
BRANCH  25  34
ATOM     34  C   UNL     1      -1.989   9.266  26.463  0.00  0.00    +0.414 C 
ATOM     35  O   UNL     1      -0.923   9.878  26.511  0.00  0.00    -0.240 OA
ATOM     36  O   UNL     1      -1.975   8.035  26.424  0.00  0.00    -0.240 OA
ENDBRANCH  25  34
BRANCH  27  37
ATOM     37  O   UNL     1      -2.631  13.057  24.251  0.00  0.00    -0.390 OA
ATOM     38  H   UNL     1      -3.339  13.534  24.691  0.00  0.00    +0.210 HD
ENDBRANCH  27  37
BRANCH  25  39
ATOM     39  O   UNL     1      -3.924   9.994  27.774  0.00  0.00    -0.343 OA
ATOM     40  C   UNL     1      -3.524  11.069  28.660  0.00  0.00    +0.198 C 
ENDBRANCH  25  39
ENDBRANCH  22  23
BRANCH  22  41
ATOM     41  O   UNL     1      -6.211   9.412  23.311  0.00  0.00    -0.387 OA
ATOM     42  H   UNL     1      -6.123  10.240  23.789  0.00  0.00    +0.210 HD
ENDBRANCH  22  41
ENDBRANCH   1  22
TORSDOF 14
