REMARK VINA RESULT:    -5.286      2.524      4.796
REMARK INTER + INTRA:         -12.761
REMARK INTER:                  -9.916
REMARK INTRA:                  -2.845
REMARK UNBOUND:                -2.840
REMARK  Name = lig_assembled_77.pdb
REMARK  19 active torsions:
REMARK  status: ('A' for Active; 'I' for Inactive)
REMARK    1  A    between atoms: _2  and  _10
REMARK    2  A    between atoms: _3  and  _17
REMARK    3  A    between atoms: _5  and  _27
REMARK    4  A    between atoms: _7  and  _8
REMARK    5  A    between atoms: _7  and  _27
REMARK    6  A    between atoms: _13  and  _47
REMARK    7  A    between atoms: _14  and  _47
REMARK    8  A    between atoms: _23  and  _43
REMARK    9  A    between atoms: _25  and  _31
REMARK   10  A    between atoms: _26  and  _30
REMARK   11  A    between atoms: _30  and  _31
REMARK   12  A    between atoms: _33  and  _34
REMARK   13  A    between atoms: _35  and  _36
REMARK   14  A    between atoms: _37  and  _39
REMARK   15  A    between atoms: _39  and  _40
REMARK   16  A    between atoms: _39  and  _41
REMARK   17  A    between atoms: _41  and  _42
REMARK   18  A    between atoms: _41  and  _43
REMARK   19  A    between atoms: _44  and  _46
REMARK                            x       y       z     vdW  Elec       q    Type
REMARK                         _______ _______ _______ _____ _____    ______ ____
ROOT
ATOM      1  C   UNL     1      -6.807   9.312  19.682  0.00  0.00    +0.401 C 
ATOM      2  O   UNL     1      -6.410   8.158  19.505  0.00  0.00    -0.226 OA
ATOM      3  N   UNL     1      -7.293   9.763  20.839  0.00  0.00    -0.279 N 
ATOM      4  H   UNL     1      -7.585  10.729  20.889  0.00  0.00    +0.152 HD
ENDROOT
BRANCH   3   5
ATOM      5  C   UNL     1      -7.428   8.936  22.044  0.00  0.00    +0.141 C 
BRANCH   5   6
ATOM      6  C   UNL     1      -6.596   9.478  23.202  0.00  0.00    +0.163 C 
BRANCH   6   7
ATOM      7  O   UNL     1      -7.366   9.451  24.415  0.00  0.00    -0.388 OA
ATOM      8  H   UNL     1      -8.289   9.290  24.205  0.00  0.00    +0.210 HD
ENDBRANCH   6   7
BRANCH   6   9
ATOM      9  C   UNL     1      -5.312   8.643  23.346  0.00  0.00    +0.175 C 
BRANCH   9  10
ATOM     10  C   UNL     1      -4.190   9.425  24.045  0.00  0.00    +0.176 C 
ATOM     11  O   UNL     1      -4.487   9.460  25.467  0.00  0.00    -0.332 OA
ATOM     12  C   UNL     1      -3.464  10.080  26.314  0.00  0.00    +0.277 C 
ATOM     13  C   UNL     1      -3.138  11.509  25.812  0.00  0.00    +0.110 C 
ATOM     14  C   UNL     1      -2.846  11.527  24.297  0.00  0.00    +0.143 C 
ATOM     15  C   UNL     1      -3.973  10.854  23.513  0.00  0.00    +0.133 C 
BRANCH  15  16
ATOM     16  N   UNL     1      -3.642  10.800  22.080  0.00  0.00    -0.308 N 
ATOM     17  H   UNL     1      -2.933  10.144  21.784  0.00  0.00    +0.149 HD
ATOM     18  C   UNL     1      -4.218  11.562  21.145  0.00  0.00    +0.210 C 
ATOM     19  C   UNL     1      -5.276  12.570  21.632  0.00  0.00    +0.109 C 
ATOM     20  O   UNL     1      -3.932  11.485  19.950  0.00  0.00    -0.276 OA
ENDBRANCH  15  16
BRANCH  12  21
ATOM     21  C   UNL     1      -2.175   9.232  26.325  0.00  0.00    +0.414 C 
ATOM     22  O   UNL     1      -1.073   9.778  26.326  0.00  0.00    -0.240 OA
ATOM     23  O   UNL     1      -2.238   8.002  26.332  0.00  0.00    -0.240 OA
ENDBRANCH  12  21
BRANCH  14  24
ATOM     24  O   UNL     1      -2.702  12.876  23.851  0.00  0.00    -0.390 OA
ATOM     25  H   UNL     1      -2.239  13.387  24.519  0.00  0.00    +0.210 HD
ENDBRANCH  14  24
BRANCH  12  26
ATOM     26  O   UNL     1      -3.995  10.179  27.661  0.00  0.00    -0.343 OA
ATOM     27  C   UNL     1      -4.336  11.522  28.088  0.00  0.00    +0.198 C 
ENDBRANCH  12  26
ENDBRANCH   9  10
BRANCH   9  28
ATOM     28  O   UNL     1      -4.868   8.186  22.053  0.00  0.00    -0.387 OA
ATOM     29  H   UNL     1      -3.926   8.001  22.084  0.00  0.00    +0.210 HD
ENDBRANCH   9  28
ENDBRANCH   6   9
ENDBRANCH   5   6
ENDBRANCH   3   5
BRANCH   1  30
ATOM     30  O   UNL     1      -6.749  10.241  18.597  0.00  0.00    -0.444 OA
BRANCH  30  31
ATOM     31  C   UNL     1      -5.940   9.700  17.548  0.00  0.00    +0.292 C 
BRANCH  31  33
ATOM     32  N   UNL     1      -6.247  11.948  16.565  0.00  0.00    -0.131 NA
ATOM     33  C   UNL     1      -5.596  10.749  16.569  0.00  0.00    +0.121 A 
ATOM     34  C   UNL     1      -4.651  10.746  15.568  0.00  0.00    +0.143 A 
ATOM     35  N   UNL     1      -4.756  11.985  14.977  0.00  0.00    -0.220 N 
ATOM     36  N   UNL     1      -5.739  12.690  15.590  0.00  0.00    -0.060 NA
BRANCH  35  37
ATOM     37  C   UNL     1      -3.966  12.548  13.940  0.00  0.00    +0.067 A 
ATOM     38  C   UNL     1      -4.200  13.854  13.483  0.00  0.00    +0.030 A 
ATOM     39  C   UNL     1      -3.495  14.348  12.382  0.00  0.00    +0.029 A 
ATOM     40  C   UNL     1      -2.553  13.538  11.743  0.00  0.00    +0.094 A 
ATOM     41  C   UNL     1      -2.246  12.271  12.246  0.00  0.00    +0.029 A 
ATOM     42  C   UNL     1      -2.961  11.771  13.337  0.00  0.00    +0.030 A 
BRANCH  40  43
ATOM     43  S   UNL     1      -1.706  14.144  10.297  0.00  0.00    +0.025 S 
ATOM     44  O   UNL     1      -1.236  12.969   9.582  0.00  0.00    -0.164 OA
ATOM     45  O   UNL     1      -2.582  15.103   9.651  0.00  0.00    -0.164 OA
BRANCH  43  46
ATOM     46  C   UNL     1      -0.263  15.052  10.813  0.00  0.00    +0.094 A 
ATOM     47  C   UNL     1      -0.036  15.337  12.160  0.00  0.00    +0.029 A 
ATOM     48  C   UNL     1       1.076  16.105  12.524  0.00  0.00    +0.024 A 
ATOM     49  C   UNL     1       1.990  16.555  11.562  0.00  0.00    +0.025 A 
ATOM     50  C   UNL     1       1.730  16.286  10.215  0.00  0.00    +0.024 A 
ATOM     51  C   UNL     1       0.623  15.520   9.838  0.00  0.00    +0.029 A 
BRANCH  49  52
ATOM     52  N   UNL     1       2.995  17.460  11.915  0.00  0.00    -0.358 N 
ATOM     53  H   UNL     1       3.189  18.172  11.219  0.00  0.00    +0.142 HD
ATOM     54  H   UNL     1       2.904  17.844  12.850  0.00  0.00    +0.142 HD
ENDBRANCH  49  52
ENDBRANCH  43  46
ENDBRANCH  40  43
ENDBRANCH  35  37
ENDBRANCH  31  33
ENDBRANCH  30  31
ENDBRANCH   1  30
TORSDOF 17
