REMARK VINA RESULT:    -5.143      5.472      9.806
REMARK INTER + INTRA:         -11.505
REMARK INTER:                  -9.202
REMARK INTRA:                  -2.303
REMARK UNBOUND:                -2.303
REMARK  Name = lig_assembled_4.pdb
REMARK  19 active torsions:
REMARK  status: ('A' for Active; 'I' for Inactive)
REMARK    1  A    between atoms: _2  and  _9
REMARK    2  A    between atoms: _4  and  _21
REMARK    3  A    between atoms: _6  and  _7
REMARK    4  A    between atoms: _6  and  _21
REMARK    5  A    between atoms: _10  and  _11
REMARK    6  A    between atoms: _11  and  _12
REMARK    7  A    between atoms: _11  and  _13
REMARK    8  A    between atoms: _17  and  _37
REMARK    9  A    between atoms: _19  and  _25
REMARK   10  A    between atoms: _20  and  _24
REMARK   11  A    between atoms: _24  and  _25
REMARK   12  A    between atoms: _27  and  _28
REMARK   13  A    between atoms: _29  and  _30
REMARK   14  A    between atoms: _31  and  _33
REMARK   15  A    between atoms: _33  and  _34
REMARK   16  A    between atoms: _33  and  _35
REMARK   17  A    between atoms: _35  and  _36
REMARK   18  A    between atoms: _35  and  _37
REMARK   19  A    between atoms: _38  and  _40
REMARK                            x       y       z     vdW  Elec       q    Type
REMARK                         _______ _______ _______ _____ _____    ______ ____
ROOT
ATOM      1  C   UNL     1      -3.353  11.948  14.020  0.00  0.00    +0.163 C 
ENDROOT
BRANCH   1   2
ATOM      2  O   UNL     1      -2.736  11.452  15.219  0.00  0.00    -0.388 OA
ATOM      3  H   UNL     1      -3.260  10.728  15.572  0.00  0.00    +0.210 HD
ENDBRANCH   1   2
BRANCH   1   4
ATOM      4  C   UNL     1      -4.864  12.034  14.207  0.00  0.00    +0.141 C 
BRANCH   4   7
ATOM      5  C   UNL     1      -6.410  12.267  16.121  0.00  0.00    +0.401 C 
ATOM      6  O   UNL     1      -7.268  12.873  15.475  0.00  0.00    -0.226 OA
ATOM      7  N   UNL     1      -5.253  11.843  15.610  0.00  0.00    -0.279 N 
ATOM      8  H   UNL     1      -4.609  11.362  16.222  0.00  0.00    +0.152 HD
BRANCH   5   9
ATOM      9  O   UNL     1      -6.645  11.995  17.505  0.00  0.00    -0.444 OA
BRANCH   9  10
ATOM     10  C   UNL     1      -5.678  11.055  17.978  0.00  0.00    +0.292 C 
BRANCH  10  12
ATOM     11  N   UNL     1      -6.663  11.115  20.240  0.00  0.00    -0.131 NA
ATOM     12  C   UNL     1      -5.558  11.124  19.446  0.00  0.00    +0.121 A 
ATOM     13  C   UNL     1      -4.436  11.243  20.235  0.00  0.00    +0.143 A 
ATOM     14  N   UNL     1      -4.921  11.437  21.514  0.00  0.00    -0.219 N 
ATOM     15  N   UNL     1      -6.263  11.279  21.495  0.00  0.00    -0.060 NA
BRANCH  14  16
ATOM     16  C   UNL     1      -4.176  11.775  22.684  0.00  0.00    +0.070 A 
ATOM     17  C   UNL     1      -3.799  13.106  23.011  0.00  0.00    -0.019 A 
ATOM     18  C   UNL     1      -3.034  13.297  24.184  0.00  0.00    +0.006 A 
ATOM     19  C   UNL     1      -2.641  12.231  24.995  0.00  0.00    +0.000 A 
ATOM     20  C   UNL     1      -3.021  10.938  24.670  0.00  0.00    +0.002 A 
ATOM     21  C   UNL     1      -3.780  10.710  23.523  0.00  0.00    +0.028 A 
BRANCH  17  22
ATOM     22  C   UNL     1      -4.159  14.335  22.174  0.00  0.00    +0.015 C 
ATOM     23  C   UNL     1      -3.022  15.354  21.990  0.00  0.00    +0.012 C 
ATOM     24  C   UNL     1      -5.387  15.030  22.767  0.00  0.00    +0.012 C 
ENDBRANCH  17  22
ENDBRANCH  14  16
ENDBRANCH  10  12
ENDBRANCH   9  10
ENDBRANCH   5   9
ENDBRANCH   4   7
ENDBRANCH   1   4
BRANCH   1  25
ATOM     25  C   UNL     1      -3.034  11.040  12.820  0.00  0.00    +0.175 C 
BRANCH  25  26
ATOM     26  C   UNL     1      -3.420   9.577  13.084  0.00  0.00    +0.176 C 
ATOM     27  O   UNL     1      -2.296   8.929  13.739  0.00  0.00    -0.332 OA
ATOM     28  C   UNL     1      -2.522   7.545  14.166  0.00  0.00    +0.277 C 
ATOM     29  C   UNL     1      -3.001   6.682  12.973  0.00  0.00    +0.110 C 
ATOM     30  C   UNL     1      -4.177   7.346  12.225  0.00  0.00    +0.143 C 
ATOM     31  C   UNL     1      -3.834   8.783  11.831  0.00  0.00    +0.133 C 
BRANCH  31  32
ATOM     32  N   UNL     1      -4.992   9.434  11.197  0.00  0.00    -0.308 N 
ATOM     33  H   UNL     1      -5.838   9.525  11.741  0.00  0.00    +0.149 HD
ATOM     34  C   UNL     1      -4.997   9.912   9.950  0.00  0.00    +0.210 C 
ATOM     35  C   UNL     1      -3.701   9.734   9.138  0.00  0.00    +0.109 C 
ATOM     36  O   UNL     1      -5.977  10.465   9.450  0.00  0.00    -0.276 OA
ENDBRANCH  31  32
BRANCH  28  37
ATOM     37  C   UNL     1      -3.569   7.486  15.298  0.00  0.00    +0.414 C 
ATOM     38  O   UNL     1      -4.145   6.430  15.556  0.00  0.00    -0.240 OA
ATOM     39  O   UNL     1      -3.838   8.494  15.952  0.00  0.00    -0.240 OA
ENDBRANCH  28  37
BRANCH  30  40
ATOM     40  O   UNL     1      -4.486   6.597  11.050  0.00  0.00    -0.390 OA
ATOM     41  H   UNL     1      -4.213   7.091  10.273  0.00  0.00    +0.210 HD
ENDBRANCH  30  40
BRANCH  28  42
ATOM     42  O   UNL     1      -1.260   7.009  14.640  0.00  0.00    -0.343 OA
ATOM     43  C   UNL     1      -0.487   7.909  15.473  0.00  0.00    +0.198 C 
ENDBRANCH  28  42
ENDBRANCH  25  26
BRANCH  25  44
ATOM     44  O   UNL     1      -1.635  11.131  12.485  0.00  0.00    -0.387 OA
ATOM     45  H   UNL     1      -1.499  11.858  11.872  0.00  0.00    +0.210 HD
ENDBRANCH  25  44
ENDBRANCH   1  25
TORSDOF 15
