REMARK VINA RESULT:    -3.423      2.849      8.363
REMARK INTER + INTRA:         -11.523
REMARK INTER:                  -6.753
REMARK INTRA:                  -4.770
REMARK UNBOUND:                -4.498
REMARK  Name = lig_assembled_33.pdb
REMARK  22 active torsions:
REMARK  status: ('A' for Active; 'I' for Inactive)
REMARK    1  A    between atoms: _2  and  _9
REMARK    2  A    between atoms: _4  and  _20
REMARK    3  A    between atoms: _5  and  _13
REMARK    4  A    between atoms: _5  and  _14
REMARK    5  A    between atoms: _6  and  _7
REMARK    6  A    between atoms: _6  and  _20
REMARK    7  A    between atoms: _9  and  _10
REMARK    8  A    between atoms: _10  and  _11
REMARK    9  A    between atoms: _11  and  _12
REMARK   10  A    between atoms: _12  and  _13
REMARK   11  A    between atoms: _16  and  _36
REMARK   12  A    between atoms: _18  and  _24
REMARK   13  A    between atoms: _19  and  _23
REMARK   14  A    between atoms: _23  and  _24
REMARK   15  A    between atoms: _26  and  _27
REMARK   16  A    between atoms: _28  and  _29
REMARK   17  A    between atoms: _30  and  _32
REMARK   18  A    between atoms: _32  and  _33
REMARK   19  A    between atoms: _32  and  _34
REMARK   20  A    between atoms: _34  and  _35
REMARK   21  A    between atoms: _34  and  _36
REMARK   22  A    between atoms: _37  and  _39
REMARK                            x       y       z     vdW  Elec       q    Type
REMARK                         _______ _______ _______ _____ _____    ______ ____
ROOT
ATOM      1  C   UNL     1      -6.508  12.921  26.174  0.00  0.00    +0.163 C 
ENDROOT
BRANCH   1   2
ATOM      2  O   UNL     1      -6.019  14.202  25.743  0.00  0.00    -0.388 OA
ATOM      3  H   UNL     1      -6.722  14.853  25.812  0.00  0.00    +0.210 HD
ENDBRANCH   1   2
BRANCH   1   4
ATOM      4  C   UNL     1      -5.441  11.831  25.980  0.00  0.00    +0.175 C 
BRANCH   4   5
ATOM      5  C   UNL     1      -4.824  11.870  24.574  0.00  0.00    +0.176 C 
ATOM      6  O   UNL     1      -5.874  12.226  23.634  0.00  0.00    -0.332 OA
ATOM      7  C   UNL     1      -5.445  12.415  22.245  0.00  0.00    +0.277 C 
ATOM      8  C   UNL     1      -4.691  11.162  21.737  0.00  0.00    +0.110 C 
ATOM      9  C   UNL     1      -3.584  10.726  22.719  0.00  0.00    +0.143 C 
ATOM     10  C   UNL     1      -4.139  10.562  24.134  0.00  0.00    +0.133 C 
BRANCH  10  11
ATOM     11  N   UNL     1      -3.059  10.231  25.077  0.00  0.00    -0.308 N 
ATOM     12  H   UNL     1      -2.375  10.946  25.280  0.00  0.00    +0.149 HD
ATOM     13  C   UNL     1      -2.924   9.048  25.683  0.00  0.00    +0.210 C 
ATOM     14  C   UNL     1      -3.968   7.972  25.333  0.00  0.00    +0.109 C 
ATOM     15  O   UNL     1      -2.017   8.805  26.479  0.00  0.00    -0.276 OA
ENDBRANCH  10  11
BRANCH   7  16
ATOM     16  C   UNL     1      -4.533  13.653  22.118  0.00  0.00    +0.414 C 
ATOM     17  O   UNL     1      -4.796  14.683  22.738  0.00  0.00    -0.240 OA
ATOM     18  O   UNL     1      -3.536  13.622  21.396  0.00  0.00    -0.240 OA
ENDBRANCH   7  16
BRANCH   9  19
ATOM     19  O   UNL     1      -3.018   9.487  22.289  0.00  0.00    -0.390 OA
ATOM     20  H   UNL     1      -3.464   9.191  21.492  0.00  0.00    +0.210 HD
ENDBRANCH   9  19
BRANCH   7  21
ATOM     21  O   UNL     1      -6.632  12.597  21.430  0.00  0.00    -0.343 OA
ATOM     22  C   UNL     1      -6.489  12.197  20.043  0.00  0.00    +0.198 C 
ENDBRANCH   7  21
ENDBRANCH   4   5
BRANCH   4  23
ATOM     23  O   UNL     1      -6.006  10.530  26.239  0.00  0.00    -0.387 OA
ATOM     24  H   UNL     1      -5.519  10.104  26.948  0.00  0.00    +0.210 HD
ENDBRANCH   4  23
ENDBRANCH   1   4
BRANCH   1  25
ATOM     25  C   UNL     1      -6.911  12.984  27.643  0.00  0.00    +0.141 C 
BRANCH  25  28
ATOM     26  C   UNL     1      -5.289  13.762  29.338  0.00  0.00    +0.401 C 
ATOM     27  O   UNL     1      -5.764  14.898  29.408  0.00  0.00    -0.226 OA
ATOM     28  N   UNL     1      -5.759  12.806  28.535  0.00  0.00    -0.279 N 
ATOM     29  H   UNL     1      -5.295  11.908  28.541  0.00  0.00    +0.152 HD
BRANCH  26  30
ATOM     30  O   UNL     1      -4.163  13.428  30.154  0.00  0.00    -0.444 OA
BRANCH  30  31
ATOM     31  C   UNL     1      -4.602  13.166  31.489  0.00  0.00    +0.292 C 
BRANCH  31  33
ATOM     32  N   UNL     1      -2.892  11.416  31.852  0.00  0.00    -0.131 NA
ATOM     33  C   UNL     1      -4.204  11.809  31.905  0.00  0.00    +0.120 A 
ATOM     34  C   UNL     1      -4.968  10.763  32.376  0.00  0.00    +0.137 A 
ATOM     35  N   UNL     1      -4.062   9.771  32.597  0.00  0.00    -0.251 N 
ATOM     36  N   UNL     1      -2.819  10.159  32.266  0.00  0.00    -0.065 NA
BRANCH  35  37
ATOM     37  C   UNL     1      -4.300   8.435  33.104  0.00  0.00    +0.145 C 
BRANCH  37  38
ATOM     38  C   UNL     1      -3.240   7.443  32.629  0.00  0.00    +0.023 C 
BRANCH  38  39
ATOM     39  C   UNL     1      -3.712   6.601  31.441  0.00  0.00    +0.002 C 
BRANCH  39  40
ATOM     40  C   UNL     1      -3.147   7.176  30.139  0.00  0.00    +0.011 C 
BRANCH  40  41
ATOM     41  C   UNL     1      -4.227   7.757  29.230  0.00  0.00    +0.120 C 
BRANCH  41  42
ATOM     42  C   UNL     1      -4.091   9.259  29.109  0.00  0.00    +0.305 C 
ATOM     43  O   UNL     1      -5.006  10.037  28.891  0.00  0.00    -0.251 OA
BRANCH  42  44
ATOM     44  O   UNL     1      -2.814   9.675  29.275  0.00  0.00    -0.481 OA
ATOM     45  H   UNL     1      -2.699  10.315  30.002  0.00  0.00    +0.295 HD
ENDBRANCH  42  44
ENDBRANCH  41  42
ENDBRANCH  40  41
ENDBRANCH  39  40
ENDBRANCH  38  39
ENDBRANCH  37  38
ENDBRANCH  35  37
ENDBRANCH  31  33
ENDBRANCH  30  31
ENDBRANCH  26  30
ENDBRANCH  25  28
ENDBRANCH   1  25
TORSDOF 20
