REMARK VINA RESULT:    -4.092      5.890      8.190
REMARK INTER + INTRA:         -11.098
REMARK INTER:                  -7.381
REMARK INTRA:                  -3.717
REMARK UNBOUND:                -3.657
REMARK  Name = lig_assembled_88.pdb
REMARK  18 active torsions:
REMARK  status: ('A' for Active; 'I' for Inactive)
REMARK    1  A    between atoms: _2  and  _9
REMARK    2  A    between atoms: _4  and  _20
REMARK    3  A    between atoms: _5  and  _15
REMARK    4  A    between atoms: _6  and  _7
REMARK    5  A    between atoms: _6  and  _20
REMARK    6  A    between atoms: _9  and  _10
REMARK    7  A    between atoms: _16  and  _36
REMARK    8  A    between atoms: _18  and  _24
REMARK    9  A    between atoms: _19  and  _23
REMARK   10  A    between atoms: _23  and  _24
REMARK   11  A    between atoms: _26  and  _27
REMARK   12  A    between atoms: _28  and  _29
REMARK   13  A    between atoms: _30  and  _32
REMARK   14  A    between atoms: _32  and  _33
REMARK   15  A    between atoms: _32  and  _34
REMARK   16  A    between atoms: _34  and  _35
REMARK   17  A    between atoms: _34  and  _36
REMARK   18  A    between atoms: _37  and  _39
REMARK                            x       y       z     vdW  Elec       q    Type
REMARK                         _______ _______ _______ _____ _____    ______ ____
ROOT
ATOM      1  C   UNL     1      -3.740  11.118  30.837  0.00  0.00    +0.163 C 
ENDROOT
BRANCH   1   2
ATOM      2  O   UNL     1      -2.916  11.352  29.683  0.00  0.00    -0.388 OA
ATOM      3  H   UNL     1      -3.263  10.857  28.937  0.00  0.00    +0.210 HD
ENDBRANCH   1   2
BRANCH   1   4
ATOM      4  C   UNL     1      -4.021   9.616  31.018  0.00  0.00    +0.175 C 
BRANCH   4   5
ATOM      5  C   UNL     1      -3.538   8.790  29.817  0.00  0.00    +0.176 C 
ATOM      6  O   UNL     1      -4.263   9.244  28.641  0.00  0.00    -0.332 OA
ATOM      7  C   UNL     1      -3.855   8.636  27.371  0.00  0.00    +0.277 C 
ATOM      8  C   UNL     1      -3.924   7.091  27.464  0.00  0.00    +0.110 C 
ATOM      9  C   UNL     1      -3.194   6.563  28.717  0.00  0.00    +0.143 C 
ATOM     10  C   UNL     1      -3.693   7.266  29.980  0.00  0.00    +0.133 C 
BRANCH  10  11
ATOM     11  N   UNL     1      -2.930   6.817  31.155  0.00  0.00    -0.308 N 
ATOM     12  H   UNL     1      -1.934   6.992  31.166  0.00  0.00    +0.149 HD
ATOM     13  C   UNL     1      -3.466   6.195  32.208  0.00  0.00    +0.210 C 
ATOM     14  C   UNL     1      -4.980   5.920  32.149  0.00  0.00    +0.109 C 
ATOM     15  O   UNL     1      -2.804   5.843  33.185  0.00  0.00    -0.276 OA
ENDBRANCH  10  11
BRANCH   7  16
ATOM     16  C   UNL     1      -2.423   9.066  26.993  0.00  0.00    +0.414 C 
ATOM     17  O   UNL     1      -2.044  10.217  27.208  0.00  0.00    -0.240 OA
ATOM     18  O   UNL     1      -1.646   8.264  26.474  0.00  0.00    -0.240 OA
ENDBRANCH   7  16
BRANCH   7  19
ATOM     19  O   UNL     1      -4.783   9.074  26.345  0.00  0.00    -0.343 OA
ATOM     20  C   UNL     1      -4.776   8.279  25.133  0.00  0.00    +0.198 C 
ENDBRANCH   7  19
BRANCH   9  21
ATOM     21  O   UNL     1      -3.410   5.157  28.844  0.00  0.00    -0.390 OA
ATOM     22  H   UNL     1      -2.918   4.695  28.161  0.00  0.00    +0.210 HD
ENDBRANCH   9  21
ENDBRANCH   4   5
BRANCH   4  23
ATOM     23  O   UNL     1      -5.429   9.397  31.238  0.00  0.00    -0.387 OA
ATOM     24  H   UNL     1      -5.715   8.626  30.742  0.00  0.00    +0.210 HD
ENDBRANCH   4  23
ENDBRANCH   1   4
BRANCH   1  25
ATOM     25  C   UNL     1      -3.055  11.662  32.086  0.00  0.00    +0.141 C 
BRANCH  25  28
ATOM     26  C   UNL     1      -2.978  14.131  32.133  0.00  0.00    +0.401 C 
ATOM     27  O   UNL     1      -1.928  14.204  31.489  0.00  0.00    -0.226 OA
ATOM     28  N   UNL     1      -3.572  12.984  32.462  0.00  0.00    -0.279 N 
ATOM     29  H   UNL     1      -4.425  13.026  33.001  0.00  0.00    +0.152 HD
BRANCH  26  30
ATOM     30  O   UNL     1      -3.611  15.338  32.566  0.00  0.00    -0.444 OA
BRANCH  30  31
ATOM     31  C   UNL     1      -4.245  15.972  31.452  0.00  0.00    +0.292 C 
BRANCH  31  33
ATOM     32  N   UNL     1      -6.224  14.488  31.555  0.00  0.00    -0.131 NA
ATOM     33  C   UNL     1      -5.218  15.059  30.822  0.00  0.00    +0.120 A 
ATOM     34  C   UNL     1      -5.302  14.618  29.520  0.00  0.00    +0.137 A 
ATOM     35  N   UNL     1      -6.333  13.725  29.545  0.00  0.00    -0.247 N 
ATOM     36  N   UNL     1      -6.917  13.688  30.757  0.00  0.00    -0.065 NA
BRANCH  35  37
ATOM     37  C   UNL     1      -6.770  12.829  28.485  0.00  0.00    +0.184 C 
BRANCH  37  38
ATOM     38  C   UNL     1      -6.314  13.266  27.107  0.00  0.00    +0.017 A 
ATOM     39  C   UNL     1      -7.029  14.206  26.339  0.00  0.00    +0.024 A 
ATOM     40  C   UNL     1      -6.579  14.586  25.071  0.00  0.00    +0.019 A 
ATOM     41 BR   UNL     1      -7.592  15.813  24.048  0.00  0.00    -0.050 Br
ATOM     42  C   UNL     1      -5.396  14.070  24.550  0.00  0.00    +0.034 A 
ATOM     43  C   UNL     1      -4.655  13.176  25.318  0.00  0.00    +0.061 A 
ATOM     44 BR   UNL     1      -3.025  12.505  24.620  0.00  0.00    -0.046 Br
ATOM     45  C   UNL     1      -5.107  12.783  26.585  0.00  0.00    +0.136 A 
BRANCH  45  46
ATOM     46  O   UNL     1      -4.377  11.915  27.355  0.00  0.00    -0.505 OA
ATOM     47  H   UNL     1      -3.500  12.319  27.502  0.00  0.00    +0.292 HD
ENDBRANCH  45  46
ENDBRANCH  37  38
ENDBRANCH  35  37
ENDBRANCH  31  33
ENDBRANCH  30  31
ENDBRANCH  26  30
ENDBRANCH  25  28
ENDBRANCH   1  25
TORSDOF 16
