REMARK VINA RESULT:    -4.927      4.103     12.703
REMARK INTER + INTRA:         -10.820
REMARK INTER:                  -7.966
REMARK INTRA:                  -2.854
REMARK UNBOUND:                -2.004
REMARK  Name = lig_assembled_6.pdb
REMARK  17 active torsions:
REMARK  status: ('A' for Active; 'I' for Inactive)
REMARK    1  A    between atoms: _2  and  _10
REMARK    2  A    between atoms: _3  and  _13
REMARK    3  A    between atoms: _5  and  _21
REMARK    4  A    between atoms: _7  and  _8
REMARK    5  A    between atoms: _7  and  _21
REMARK    6  A    between atoms: _17  and  _37
REMARK    7  A    between atoms: _19  and  _25
REMARK    8  A    between atoms: _20  and  _24
REMARK    9  A    between atoms: _24  and  _25
REMARK   10  A    between atoms: _27  and  _28
REMARK   11  A    between atoms: _29  and  _30
REMARK   12  A    between atoms: _31  and  _33
REMARK   13  A    between atoms: _33  and  _34
REMARK   14  A    between atoms: _33  and  _35
REMARK   15  A    between atoms: _35  and  _36
REMARK   16  A    between atoms: _35  and  _37
REMARK   17  A    between atoms: _38  and  _40
REMARK                            x       y       z     vdW  Elec       q    Type
REMARK                         _______ _______ _______ _____ _____    ______ ____
ROOT
ATOM      1  C   UNL     1      -2.955  10.163  13.917  0.00  0.00    +0.163 C 
ENDROOT
BRANCH   1   2
ATOM      2  O   UNL     1      -2.044  10.258  12.810  0.00  0.00    -0.388 OA
ATOM      3  H   UNL     1      -1.968   9.402  12.383  0.00  0.00    +0.210 HD
ENDBRANCH   1   2
BRANCH   1   4
ATOM      4  C   UNL     1      -4.028   9.120  13.622  0.00  0.00    +0.141 C 
BRANCH   4   7
ATOM      5  C   UNL     1      -6.363   9.114  14.432  0.00  0.00    +0.401 C 
ATOM      6  O   UNL     1      -6.854   9.204  13.305  0.00  0.00    -0.226 OA
ATOM      7  N   UNL     1      -5.052   9.075  14.674  0.00  0.00    -0.279 N 
ATOM      8  H   UNL     1      -4.745   9.010  15.634  0.00  0.00    +0.152 HD
BRANCH   5   9
ATOM      9  O   UNL     1      -7.232   9.051  15.566  0.00  0.00    -0.444 OA
BRANCH   9  10
ATOM     10  C   UNL     1      -7.611  10.375  15.952  0.00  0.00    +0.292 C 
BRANCH  10  12
ATOM     11  N   UNL     1      -5.910  11.997  16.728  0.00  0.00    -0.131 NA
ATOM     12  C   UNL     1      -6.681  10.898  16.970  0.00  0.00    +0.121 A 
ATOM     13  C   UNL     1      -6.431  10.447  18.246  0.00  0.00    +0.143 A 
ATOM     14  N   UNL     1      -5.512  11.331  18.762  0.00  0.00    -0.220 N 
ATOM     15  N   UNL     1      -5.196  12.249  17.817  0.00  0.00    -0.060 NA
BRANCH  14  16
ATOM     16  C   UNL     1      -4.961  11.377  20.071  0.00  0.00    +0.067 A 
ATOM     17  C   UNL     1      -3.815  12.142  20.338  0.00  0.00    +0.034 A 
ATOM     18  C   UNL     1      -3.246  12.130  21.616  0.00  0.00    +0.086 A 
ATOM     19  C   UNL     1      -3.824  11.355  22.629  0.00  0.00    +0.273 A 
ATOM     20  C   UNL     1      -4.982  10.610  22.380  0.00  0.00    +0.086 A 
ATOM     21  C   UNL     1      -5.550  10.624  21.100  0.00  0.00    +0.034 A 
BRANCH  19  22
ATOM     22  N   UNL     1      -3.197  11.314  23.956  0.00  0.00    +0.080 N 
ATOM     23  O   UNL     1      -3.114  12.377  24.587  0.00  0.00    +0.041 OA
ATOM     24  O   UNL     1      -2.781  10.220  24.364  0.00  0.00    -0.576 OA
ENDBRANCH  19  22
ENDBRANCH  14  16
ENDBRANCH  10  12
ENDBRANCH   9  10
ENDBRANCH   5   9
ENDBRANCH   4   7
ENDBRANCH   1   4
BRANCH   1  25
ATOM     25  C   UNL     1      -3.621  11.520  14.200  0.00  0.00    +0.175 C 
BRANCH  25  26
ATOM     26  C   UNL     1      -3.366  12.535  13.076  0.00  0.00    +0.176 C 
ATOM     27  O   UNL     1      -2.136  13.246  13.386  0.00  0.00    -0.332 OA
ATOM     28  C   UNL     1      -1.675  14.189  12.363  0.00  0.00    +0.277 C 
ATOM     29  C   UNL     1      -2.793  15.203  12.018  0.00  0.00    +0.110 C 
ATOM     30  C   UNL     1      -4.129  14.495  11.711  0.00  0.00    +0.143 C 
ATOM     31  C   UNL     1      -4.512  13.535  12.839  0.00  0.00    +0.133 C 
BRANCH  31  32
ATOM     32  N   UNL     1      -5.742  12.803  12.496  0.00  0.00    -0.308 N 
ATOM     33  H   UNL     1      -5.689  12.112  11.761  0.00  0.00    +0.149 HD
ATOM     34  C   UNL     1      -6.921  12.991  13.094  0.00  0.00    +0.210 C 
ATOM     35  C   UNL     1      -6.974  14.069  14.193  0.00  0.00    +0.109 C 
ATOM     36  O   UNL     1      -7.931  12.352  12.796  0.00  0.00    -0.276 OA
ENDBRANCH  31  32
BRANCH  28  37
ATOM     37  C   UNL     1      -1.244  13.441  11.084  0.00  0.00    +0.414 C 
ATOM     38  O   UNL     1      -0.646  12.369  11.165  0.00  0.00    -0.240 OA
ATOM     39  O   UNL     1      -1.493  13.910   9.973  0.00  0.00    -0.240 OA
ENDBRANCH  28  37
BRANCH  30  40
ATOM     40  O   UNL     1      -5.163  15.466  11.548  0.00  0.00    -0.390 OA
ATOM     41  H   UNL     1      -4.957  16.031  10.800  0.00  0.00    +0.210 HD
ENDBRANCH  30  40
BRANCH  28  42
ATOM     42  O   UNL     1      -0.545  14.921  12.905  0.00  0.00    -0.343 OA
ATOM     43  C   UNL     1      -0.118  16.060  12.116  0.00  0.00    +0.198 C 
ENDBRANCH  28  42
ENDBRANCH  25  26
BRANCH  25  44
ATOM     44  O   UNL     1      -3.158  12.048  15.460  0.00  0.00    -0.387 OA
ATOM     45  H   UNL     1      -3.875  12.029  16.098  0.00  0.00    +0.210 HD
ENDBRANCH  25  44
ENDBRANCH   1  25
TORSDOF 15
