REMARK VINA RESULT:    -4.729      2.712     12.616
REMARK INTER + INTRA:         -10.466
REMARK INTER:                  -8.354
REMARK INTRA:                  -2.112
REMARK UNBOUND:                -2.004
REMARK  Name = lig_assembled_6.pdb
REMARK  17 active torsions:
REMARK  status: ('A' for Active; 'I' for Inactive)
REMARK    1  A    between atoms: _2  and  _10
REMARK    2  A    between atoms: _3  and  _13
REMARK    3  A    between atoms: _5  and  _21
REMARK    4  A    between atoms: _7  and  _8
REMARK    5  A    between atoms: _7  and  _21
REMARK    6  A    between atoms: _17  and  _37
REMARK    7  A    between atoms: _19  and  _25
REMARK    8  A    between atoms: _20  and  _24
REMARK    9  A    between atoms: _24  and  _25
REMARK   10  A    between atoms: _27  and  _28
REMARK   11  A    between atoms: _29  and  _30
REMARK   12  A    between atoms: _31  and  _33
REMARK   13  A    between atoms: _33  and  _34
REMARK   14  A    between atoms: _33  and  _35
REMARK   15  A    between atoms: _35  and  _36
REMARK   16  A    between atoms: _35  and  _37
REMARK   17  A    between atoms: _38  and  _40
REMARK                            x       y       z     vdW  Elec       q    Type
REMARK                         _______ _______ _______ _____ _____    ______ ____
ROOT
ATOM      1  C   UNL     1      -5.984  10.869  16.295  0.00  0.00    +0.163 C 
ENDROOT
BRANCH   1   2
ATOM      2  O   UNL     1      -5.147  12.013  16.057  0.00  0.00    -0.388 OA
ATOM      3  H   UNL     1      -5.498  12.519  15.321  0.00  0.00    +0.210 HD
ENDBRANCH   1   2
BRANCH   1   4
ATOM      4  C   UNL     1      -6.516  10.901  17.724  0.00  0.00    +0.141 C 
BRANCH   4   7
ATOM      5  C   UNL     1      -4.828  10.537  19.491  0.00  0.00    +0.401 C 
ATOM      6  O   UNL     1      -5.002   9.317  19.537  0.00  0.00    -0.226 OA
ATOM      7  N   UNL     1      -5.497  11.355  18.678  0.00  0.00    -0.279 N 
ATOM      8  H   UNL     1      -5.290  12.344  18.720  0.00  0.00    +0.152 HD
BRANCH   5   9
ATOM      9  O   UNL     1      -3.858  11.134  20.356  0.00  0.00    -0.444 OA
BRANCH   9  10
ATOM     10  C   UNL     1      -4.524  11.831  21.412  0.00  0.00    +0.292 C 
BRANCH  10  12
ATOM     11  N   UNL     1      -3.129  10.350  22.822  0.00  0.00    -0.131 NA
ATOM     12  C   UNL     1      -4.081  11.322  22.723  0.00  0.00    +0.121 A 
ATOM     13  C   UNL     1      -4.481  11.688  23.988  0.00  0.00    +0.143 A 
ATOM     14  N   UNL     1      -3.714  10.926  24.838  0.00  0.00    -0.220 N 
ATOM     15  N   UNL     1      -2.916  10.109  24.108  0.00  0.00    -0.060 NA
BRANCH  14  16
ATOM     16  C   UNL     1      -3.666  10.954  26.258  0.00  0.00    +0.067 A 
ATOM     17  C   UNL     1      -3.532   9.765  26.992  0.00  0.00    +0.034 A 
ATOM     18  C   UNL     1      -3.548   9.799  28.391  0.00  0.00    +0.086 A 
ATOM     19  C   UNL     1      -3.695  11.022  29.056  0.00  0.00    +0.273 A 
ATOM     20  C   UNL     1      -3.802  12.215  28.333  0.00  0.00    +0.086 A 
ATOM     21  C   UNL     1      -3.785  12.179  26.934  0.00  0.00    +0.034 A 
BRANCH  19  22
ATOM     22  N   UNL     1      -3.755  11.045  30.524  0.00  0.00    +0.080 N 
ATOM     23  O   UNL     1      -4.592  11.790  31.054  0.00  0.00    +0.041 OA
ATOM     24  O   UNL     1      -2.961  10.325  31.145  0.00  0.00    -0.576 OA
ENDBRANCH  19  22
ENDBRANCH  14  16
ENDBRANCH  10  12
ENDBRANCH   9  10
ENDBRANCH   5   9
ENDBRANCH   4   7
ENDBRANCH   1   4
BRANCH   1  25
ATOM     25  C   UNL     1      -5.208   9.561  16.065  0.00  0.00    +0.175 C 
BRANCH  25  26
ATOM     26  C   UNL     1      -4.164   9.698  14.946  0.00  0.00    +0.176 C 
ATOM     27  O   UNL     1      -4.820  10.295  13.793  0.00  0.00    -0.332 OA
ATOM     28  C   UNL     1      -3.947  10.600  12.656  0.00  0.00    +0.277 C 
ATOM     29  C   UNL     1      -3.165   9.337  12.219  0.00  0.00    +0.110 C 
ATOM     30  C   UNL     1      -2.477   8.650  13.417  0.00  0.00    +0.143 C 
ATOM     31  C   UNL     1      -3.476   8.381  14.543  0.00  0.00    +0.133 C 
BRANCH  31  32
ATOM     32  N   UNL     1      -2.792   7.806  15.712  0.00  0.00    -0.308 N 
ATOM     33  H   UNL     1      -2.115   8.382  16.193  0.00  0.00    +0.149 HD
ATOM     34  C   UNL     1      -3.006   6.573  16.178  0.00  0.00    +0.210 C 
ATOM     35  C   UNL     1      -4.024   5.711  15.408  0.00  0.00    +0.109 C 
ATOM     36  O   UNL     1      -2.429   6.123  17.169  0.00  0.00    -0.276 OA
ENDBRANCH  31  32
BRANCH  28  37
ATOM     37  C   UNL     1      -2.952  11.723  13.016  0.00  0.00    +0.414 C 
ATOM     38  O   UNL     1      -1.847  11.769  12.478  0.00  0.00    -0.240 OA
ATOM     39  O   UNL     1      -3.254  12.583  13.845  0.00  0.00    -0.240 OA
ENDBRANCH  28  37
BRANCH  30  40
ATOM     40  O   UNL     1      -1.898   7.414  12.996  0.00  0.00    -0.390 OA
ATOM     41  H   UNL     1      -2.054   7.291  12.057  0.00  0.00    +0.210 HD
ENDBRANCH  30  40
BRANCH  28  42
ATOM     42  O   UNL     1      -4.784  11.026  11.550  0.00  0.00    -0.343 OA
ATOM     43  C   UNL     1      -6.199  11.114  11.851  0.00  0.00    +0.198 C 
ENDBRANCH  28  42
ENDBRANCH  25  26
BRANCH  25  44
ATOM     44  O   UNL     1      -6.122   8.488  15.762  0.00  0.00    -0.387 OA
ATOM     45  H   UNL     1      -5.845   7.692  16.222  0.00  0.00    +0.210 HD
ENDBRANCH  25  44
ENDBRANCH   1  25
TORSDOF 15
