REMARK VINA RESULT:    -5.518      3.034      6.426
REMARK INTER + INTRA:         -11.364
REMARK INTER:                  -8.822
REMARK INTRA:                  -2.542
REMARK UNBOUND:                -1.813
REMARK  Name = lig_assembled_40.pdb
REMARK  17 active torsions:
REMARK  status: ('A' for Active; 'I' for Inactive)
REMARK    1  A    between atoms: _2  and  _9
REMARK    2  A    between atoms: _4  and  _19
REMARK    3  A    between atoms: _6  and  _7
REMARK    4  A    between atoms: _6  and  _19
REMARK    5  A    between atoms: _12  and  _13
REMARK    6  A    between atoms: _15  and  _35
REMARK    7  A    between atoms: _17  and  _23
REMARK    8  A    between atoms: _18  and  _22
REMARK    9  A    between atoms: _22  and  _23
REMARK   10  A    between atoms: _25  and  _26
REMARK   11  A    between atoms: _27  and  _28
REMARK   12  A    between atoms: _29  and  _31
REMARK   13  A    between atoms: _31  and  _32
REMARK   14  A    between atoms: _31  and  _33
REMARK   15  A    between atoms: _33  and  _34
REMARK   16  A    between atoms: _33  and  _35
REMARK   17  A    between atoms: _36  and  _38
REMARK                            x       y       z     vdW  Elec       q    Type
REMARK                         _______ _______ _______ _____ _____    ______ ____
ROOT
ATOM      1  C   UNL     1      -3.510   9.623  31.367  0.00  0.00    +0.163 C 
ENDROOT
BRANCH   1   2
ATOM      2  O   UNL     1      -2.505  10.589  31.714  0.00  0.00    -0.388 OA
ATOM      3  H   UNL     1      -2.296  10.514  32.648  0.00  0.00    +0.210 HD
ENDBRANCH   1   2
BRANCH   1   4
ATOM      4  C   UNL     1      -2.896   8.510  30.525  0.00  0.00    +0.141 C 
BRANCH   4   7
ATOM      5  C   UNL     1      -2.029   8.183  28.234  0.00  0.00    +0.401 C 
ATOM      6  O   UNL     1      -1.734   7.000  28.413  0.00  0.00    -0.226 OA
ATOM      7  N   UNL     1      -2.571   8.966  29.168  0.00  0.00    -0.279 N 
ATOM      8  H   UNL     1      -2.769   9.928  28.928  0.00  0.00    +0.152 HD
BRANCH   5   9
ATOM      9  O   UNL     1      -1.781   8.775  26.956  0.00  0.00    -0.444 OA
BRANCH   9  10
ATOM     10  C   UNL     1      -1.770  10.200  27.083  0.00  0.00    +0.292 C 
BRANCH  10  12
ATOM     11  N   UNL     1      -2.303  12.184  25.705  0.00  0.00    -0.131 NA
ATOM     12  C   UNL     1      -2.299  10.829  25.859  0.00  0.00    +0.121 A 
ATOM     13  C   UNL     1      -2.827  10.247  24.731  0.00  0.00    +0.143 A 
ATOM     14  N   UNL     1      -3.115  11.297  23.888  0.00  0.00    -0.220 N 
ATOM     15  N   UNL     1      -2.808  12.463  24.510  0.00  0.00    -0.060 NA
BRANCH  14  16
ATOM     16  C   UNL     1      -3.609  11.254  22.558  0.00  0.00    +0.067 A 
ATOM     17  C   UNL     1      -4.343  10.154  22.101  0.00  0.00    +0.028 A 
ATOM     18  C   UNL     1      -4.763  10.094  20.769  0.00  0.00    +0.005 A 
ATOM     19  C   UNL     1      -4.456  11.128  19.879  0.00  0.00    -0.050 A 
ATOM     20  C   UNL     1      -3.753  12.244  20.347  0.00  0.00    +0.005 A 
ATOM     21  C   UNL     1      -4.864  11.046  18.437  0.00  0.00    +0.044 C 
ATOM     22  C   UNL     1      -3.331  12.310  21.678  0.00  0.00    +0.028 A 
ENDBRANCH  14  16
ENDBRANCH  10  12
ENDBRANCH   9  10
ENDBRANCH   5   9
ENDBRANCH   4   7
ENDBRANCH   1   4
BRANCH   1  23
ATOM     23  C   UNL     1      -4.661  10.283  30.587  0.00  0.00    +0.175 C 
BRANCH  23  24
ATOM     24  C   UNL     1      -4.536  11.813  30.557  0.00  0.00    +0.176 C 
ATOM     25  O   UNL     1      -4.782  12.308  31.902  0.00  0.00    -0.332 OA
ATOM     26  C   UNL     1      -4.600  13.751  32.089  0.00  0.00    +0.277 C 
ATOM     27  C   UNL     1      -5.463  14.541  31.075  0.00  0.00    +0.110 C 
ATOM     28  C   UNL     1      -5.259  14.029  29.633  0.00  0.00    +0.143 C 
ATOM     29  C   UNL     1      -5.469  12.516  29.554  0.00  0.00    +0.133 C 
BRANCH  29  30
ATOM     30  N   UNL     1      -5.188  12.028  28.195  0.00  0.00    -0.308 N 
ATOM     31  H   UNL     1      -4.254  12.156  27.832  0.00  0.00    +0.149 HD
ATOM     32  C   UNL     1      -6.086  11.426  27.410  0.00  0.00    +0.210 C 
ATOM     33  C   UNL     1      -7.507  11.270  27.983  0.00  0.00    +0.109 C 
ATOM     34  O   UNL     1      -5.818  11.014  26.281  0.00  0.00    -0.276 OA
ENDBRANCH  29  30
BRANCH  26  35
ATOM     35  C   UNL     1      -3.117  14.142  31.920  0.00  0.00    +0.414 C 
ATOM     36  O   UNL     1      -2.236  13.486  32.472  0.00  0.00    -0.240 OA
ATOM     37  O   UNL     1      -2.803  15.114  31.231  0.00  0.00    -0.240 OA
ENDBRANCH  26  35
BRANCH  28  38
ATOM     38  O   UNL     1      -6.181  14.678  28.757  0.00  0.00    -0.390 OA
ATOM     39  H   UNL     1      -6.067  14.341  27.865  0.00  0.00    +0.210 HD
ENDBRANCH  28  38
BRANCH  26  40
ATOM     40  O   UNL     1      -5.044  14.089  33.428  0.00  0.00    -0.343 OA
ATOM     41  C   UNL     1      -5.216  15.507  33.677  0.00  0.00    +0.198 C 
ENDBRANCH  26  40
ENDBRANCH  23  24
BRANCH  23  42
ATOM     42  O   UNL     1      -5.929   9.899  31.154  0.00  0.00    -0.387 OA
ATOM     43  H   UNL     1      -6.019   8.944  31.122  0.00  0.00    +0.210 HD
ENDBRANCH  23  42
ENDBRANCH   1  23
TORSDOF 14
