REMARK VINA RESULT:    -5.039      2.001      2.539
REMARK INTER + INTRA:         -13.481
REMARK INTER:                  -8.120
REMARK INTRA:                  -5.361
REMARK UNBOUND:                -3.581
REMARK  Name = lig_assembled_31.pdb
REMARK  20 active torsions:
REMARK  status: ('A' for Active; 'I' for Inactive)
REMARK    1  A    between atoms: _2  and  _11
REMARK    2  A    between atoms: _3  and  _12
REMARK    3  A    between atoms: _4  and  _14
REMARK    4  A    between atoms: _6  and  _24
REMARK    5  A    between atoms: _8  and  _9
REMARK    6  A    between atoms: _8  and  _24
REMARK    7  A    between atoms: _11  and  _12
REMARK    8  A    between atoms: _14  and  _15
REMARK    9  A    between atoms: _20  and  _40
REMARK   10  A    between atoms: _22  and  _28
REMARK   11  A    between atoms: _23  and  _27
REMARK   12  A    between atoms: _27  and  _28
REMARK   13  A    between atoms: _30  and  _31
REMARK   14  A    between atoms: _32  and  _33
REMARK   15  A    between atoms: _34  and  _36
REMARK   16  A    between atoms: _36  and  _37
REMARK   17  A    between atoms: _36  and  _38
REMARK   18  A    between atoms: _38  and  _39
REMARK   19  A    between atoms: _38  and  _40
REMARK   20  A    between atoms: _41  and  _43
REMARK                            x       y       z     vdW  Elec       q    Type
REMARK                         _______ _______ _______ _____ _____    ______ ____
ROOT
ATOM      1  C   UNL     1      -5.084   7.043  22.449  0.00  0.00    +0.401 C 
ATOM      2  O   UNL     1      -4.950   7.482  21.304  0.00  0.00    -0.226 OA
ATOM      3  N   UNL     1      -6.186   7.199  23.183  0.00  0.00    -0.279 N 
ATOM      4  H   UNL     1      -6.203   6.794  24.109  0.00  0.00    +0.152 HD
ENDROOT
BRANCH   1   5
ATOM      5  O   UNL     1      -4.006   6.315  23.043  0.00  0.00    -0.444 OA
BRANCH   5   6
ATOM      6  C   UNL     1      -4.462   5.679  24.240  0.00  0.00    +0.292 C 
BRANCH   6   8
ATOM      7  N   UNL     1      -2.435   6.692  25.239  0.00  0.00    -0.131 NA
ATOM      8  C   UNL     1      -3.681   6.149  25.402  0.00  0.00    +0.120 A 
ATOM      9  C   UNL     1      -3.996   6.144  26.743  0.00  0.00    +0.137 A 
ATOM     10  N   UNL     1      -2.897   6.687  27.339  0.00  0.00    -0.250 N 
ATOM     11  N   UNL     1      -1.963   7.021  26.434  0.00  0.00    -0.065 NA
BRANCH  10  12
ATOM     12  C   UNL     1      -2.666   6.914  28.751  0.00  0.00    +0.164 C 
BRANCH  12  13
ATOM     13  C   UNL     1      -1.830   8.163  28.983  0.00  0.00    +0.129 C 
BRANCH  13  14
ATOM     14  N   UNL     1      -2.330   9.361  28.319  0.00  0.00    -0.298 N 
ATOM     15  H   UNL     1      -1.991   9.623  27.405  0.00  0.00    +0.150 HD
ATOM     16  C   UNL     1      -2.912  10.334  29.087  0.00  0.00    +0.300 C 
ATOM     17  O   UNL     1      -3.119  10.196  30.290  0.00  0.00    -0.253 OA
ATOM     18  N   UNL     1      -3.267  11.455  28.401  0.00  0.00    -0.292 N 
ATOM     19  H   UNL     1      -3.059  11.584  27.421  0.00  0.00    +0.151 HD
BRANCH  18  20
ATOM     20  C   UNL     1      -3.895  12.537  29.122  0.00  0.00    +0.180 C 
BRANCH  20  21
ATOM     21  C   UNL     1      -5.346  12.670  28.837  0.00  0.00    +0.122 A 
ATOM     22  O   UNL     1      -6.011  11.618  28.271  0.00  0.00    -0.466 OA
ATOM     23  C   UNL     1      -7.308  12.008  28.124  0.00  0.00    +0.195 A 
ATOM     24  C   UNL     1      -7.486  13.292  28.583  0.00  0.00    +0.041 A 
ATOM     25  C   UNL     1      -6.220  13.722  29.044  0.00  0.00    +0.046 A 
ENDBRANCH  20  21
ENDBRANCH  18  20
ENDBRANCH  13  14
ENDBRANCH  12  13
ENDBRANCH  10  12
ENDBRANCH   6   8
ENDBRANCH   5   6
ENDBRANCH   1   5
BRANCH   3  26
ATOM     26  C   UNL     1      -7.375   7.927  22.723  0.00  0.00    +0.141 C 
BRANCH  26  27
ATOM     27  C   UNL     1      -7.499   9.293  23.391  0.00  0.00    +0.163 C 
BRANCH  27  28
ATOM     28  O   UNL     1      -6.879   9.264  24.687  0.00  0.00    -0.388 OA
ATOM     29  H   UNL     1      -6.147   8.642  24.679  0.00  0.00    +0.210 HD
ENDBRANCH  27  28
BRANCH  27  30
ATOM     30  C   UNL     1      -6.853  10.364  22.496  0.00  0.00    +0.175 C 
BRANCH  30  31
ATOM     31  C   UNL     1      -5.414  10.685  22.926  0.00  0.00    +0.176 C 
ATOM     32  O   UNL     1      -5.478  11.608  24.048  0.00  0.00    -0.332 OA
ATOM     33  C   UNL     1      -4.192  11.948  24.664  0.00  0.00    +0.277 C 
ATOM     34  C   UNL     1      -3.208  12.488  23.598  0.00  0.00    +0.110 C 
ATOM     35  C   UNL     1      -3.129  11.556  22.371  0.00  0.00    +0.143 C 
ATOM     36  C   UNL     1      -4.523  11.266  21.812  0.00  0.00    +0.133 C 
BRANCH  36  37
ATOM     37  N   UNL     1      -4.442  10.308  20.698  0.00  0.00    -0.308 N 
ATOM     38  H   UNL     1      -4.110   9.376  20.901  0.00  0.00    +0.149 HD
ATOM     39  C   UNL     1      -4.780  10.590  19.437  0.00  0.00    +0.210 C 
ATOM     40  C   UNL     1      -5.258  12.027  19.156  0.00  0.00    +0.109 C 
ATOM     41  O   UNL     1      -4.716   9.763  18.527  0.00  0.00    -0.276 OA
ENDBRANCH  36  37
BRANCH  33  42
ATOM     42  C   UNL     1      -3.576  10.716  25.358  0.00  0.00    +0.414 C 
ATOM     43  O   UNL     1      -2.355  10.563  25.380  0.00  0.00    -0.240 OA
ATOM     44  O   UNL     1      -4.298   9.876  25.896  0.00  0.00    -0.240 OA
ENDBRANCH  33  42
BRANCH  35  45
ATOM     45  O   UNL     1      -2.332  12.163  21.354  0.00  0.00    -0.390 OA
ATOM     46  H   UNL     1      -2.432  13.117  21.395  0.00  0.00    +0.210 HD
ENDBRANCH  35  45
BRANCH  33  47
ATOM     47  O   UNL     1      -4.426  12.994  25.642  0.00  0.00    -0.343 OA
ATOM     48  C   UNL     1      -5.547  13.866  25.351  0.00  0.00    +0.198 C 
ENDBRANCH  33  47
ENDBRANCH  30  31
BRANCH  30  49
ATOM     49  O   UNL     1      -7.652  11.563  22.500  0.00  0.00    -0.387 OA
ATOM     50  H   UNL     1      -7.105  12.314  22.260  0.00  0.00    +0.210 HD
ENDBRANCH  30  49
ENDBRANCH  27  30
ENDBRANCH  26  27
ENDBRANCH   3  26
TORSDOF 18
