REMARK VINA RESULT:    -4.784      3.153      7.635
REMARK INTER + INTRA:         -11.346
REMARK INTER:                  -8.777
REMARK INTRA:                  -2.570
REMARK UNBOUND:                -3.067
REMARK  Name = lig_assembled_8.pdb
REMARK  16 active torsions:
REMARK  status: ('A' for Active; 'I' for Inactive)
REMARK    1  A    between atoms: _2  and  _9
REMARK    2  A    between atoms: _4  and  _18
REMARK    3  A    between atoms: _6  and  _7
REMARK    4  A    between atoms: _6  and  _18
REMARK    5  A    between atoms: _14  and  _34
REMARK    6  A    between atoms: _16  and  _22
REMARK    7  A    between atoms: _17  and  _21
REMARK    8  A    between atoms: _21  and  _22
REMARK    9  A    between atoms: _24  and  _25
REMARK   10  A    between atoms: _26  and  _27
REMARK   11  A    between atoms: _28  and  _30
REMARK   12  A    between atoms: _30  and  _31
REMARK   13  A    between atoms: _30  and  _32
REMARK   14  A    between atoms: _32  and  _33
REMARK   15  A    between atoms: _32  and  _34
REMARK   16  A    between atoms: _35  and  _37
REMARK                            x       y       z     vdW  Elec       q    Type
REMARK                         _______ _______ _______ _____ _____    ______ ____
ROOT
ATOM      1  C   UNL     1      -4.043   9.262  30.016  0.00  0.00    +0.163 C 
ENDROOT
BRANCH   1   2
ATOM      2  O   UNL     1      -2.926   9.700  30.806  0.00  0.00    -0.388 OA
ATOM      3  H   UNL     1      -2.376   8.945  31.030  0.00  0.00    +0.210 HD
ENDBRANCH   1   2
BRANCH   1   4
ATOM      4  C   UNL     1      -3.548   8.587  28.741  0.00  0.00    +0.141 C 
BRANCH   4   7
ATOM      5  C   UNL     1      -2.201   9.219  26.768  0.00  0.00    +0.401 C 
ATOM      6  O   UNL     1      -1.853   8.062  26.518  0.00  0.00    -0.226 OA
ATOM      7  N   UNL     1      -2.987   9.556  27.791  0.00  0.00    -0.279 N 
ATOM      8  H   UNL     1      -3.209  10.533  27.920  0.00  0.00    +0.152 HD
BRANCH   5   9
ATOM      9  O   UNL     1      -1.742  10.279  25.926  0.00  0.00    -0.444 OA
BRANCH   9  10
ATOM     10  C   UNL     1      -2.550  11.440  26.137  0.00  0.00    +0.292 C 
BRANCH  10  12
ATOM     11  N   UNL     1      -2.840  13.221  24.453  0.00  0.00    -0.131 NA
ATOM     12  C   UNL     1      -3.069  11.942  24.851  0.00  0.00    +0.121 A 
ATOM     13  C   UNL     1      -3.805  11.300  23.882  0.00  0.00    +0.143 A 
ATOM     14  N   UNL     1      -3.990  12.234  22.878  0.00  0.00    -0.219 N 
ATOM     15  N   UNL     1      -3.404  13.389  23.266  0.00  0.00    -0.060 NA
BRANCH  14  16
ATOM     16  C   UNL     1      -4.657  12.062  21.625  0.00  0.00    +0.081 A 
ATOM     17  C   UNL     1      -3.900  11.588  20.530  0.00  0.00    +0.029 A 
ATOM     18  C   UNL     1      -4.472  11.413  19.266  0.00  0.00    +0.002 A 
ATOM     19  C   UNL     1      -5.812  11.705  19.065  0.00  0.00    +0.001 A 
ATOM     20  C   UNL     1      -6.580  12.166  20.131  0.00  0.00    +0.017 A 
ATOM     21  C   UNL     1      -6.020  12.346  21.411  0.00  0.00    +0.043 A 
ATOM     22 BR   UNL     1      -7.269  12.978  22.704  0.00  0.00    -0.048 Br
ENDBRANCH  14  16
ENDBRANCH  10  12
ENDBRANCH   9  10
ENDBRANCH   5   9
ENDBRANCH   4   7
ENDBRANCH   1   4
BRANCH   1  23
ATOM     23  C   UNL     1      -4.955  10.446  29.650  0.00  0.00    +0.175 C 
BRANCH  23  24
ATOM     24  C   UNL     1      -4.447  11.770  30.238  0.00  0.00    +0.176 C 
ATOM     25  O   UNL     1      -4.546  11.684  31.686  0.00  0.00    -0.332 OA
ATOM     26  C   UNL     1      -4.003  12.826  32.428  0.00  0.00    +0.277 C 
ATOM     27  C   UNL     1      -4.648  14.145  31.937  0.00  0.00    +0.110 C 
ATOM     28  C   UNL     1      -4.594  14.268  30.400  0.00  0.00    +0.143 C 
ATOM     29  C   UNL     1      -5.181  13.025  29.730  0.00  0.00    +0.133 C 
BRANCH  29  30
ATOM     30  N   UNL     1      -5.046  13.115  28.268  0.00  0.00    -0.308 N 
ATOM     31  H   UNL     1      -4.113  13.159  27.882  0.00  0.00    +0.149 HD
ATOM     32  C   UNL     1      -6.075  13.144  27.417  0.00  0.00    +0.210 C 
ATOM     33  C   UNL     1      -7.484  13.102  28.037  0.00  0.00    +0.109 C 
ATOM     34  O   UNL     1      -5.931  13.205  26.195  0.00  0.00    -0.276 OA
ENDBRANCH  29  30
BRANCH  26  35
ATOM     35  C   UNL     1      -2.472  12.907  32.263  0.00  0.00    +0.414 C 
ATOM     36  O   UNL     1      -1.795  11.880  32.235  0.00  0.00    -0.240 OA
ATOM     37  O   UNL     1      -1.912  13.999  32.158  0.00  0.00    -0.240 OA
ENDBRANCH  26  35
BRANCH  28  38
ATOM     38  O   UNL     1      -5.329  15.419  29.982  0.00  0.00    -0.390 OA
ATOM     39  H   UNL     1      -4.731  16.054  29.582  0.00  0.00    +0.210 HD
ENDBRANCH  28  38
BRANCH  26  40
ATOM     40  O   UNL     1      -4.335  12.649  33.830  0.00  0.00    -0.343 OA
ATOM     41  C   UNL     1      -5.455  11.765  34.087  0.00  0.00    +0.198 C 
ENDBRANCH  26  40
ENDBRANCH  23  24
BRANCH  23  42
ATOM     42  O   UNL     1      -6.303  10.190  30.093  0.00  0.00    -0.387 OA
ATOM     43  H   UNL     1      -6.366  10.353  31.037  0.00  0.00    +0.210 HD
ENDBRANCH  23  42
ENDBRANCH   1  23
TORSDOF 14
