REMARK VINA RESULT:    -3.615      2.104      5.155
REMARK INTER + INTRA:         -10.682
REMARK INTER:                  -6.845
REMARK INTRA:                  -3.837
REMARK UNBOUND:                -4.108
REMARK  Name = lig_assembled_53.pdb
REMARK  18 active torsions:
REMARK  status: ('A' for Active; 'I' for Inactive)
REMARK    1  A    between atoms: _2  and  _9
REMARK    2  A    between atoms: _4  and  _16
REMARK    3  A    between atoms: _5  and  _9
REMARK    4  A    between atoms: _5  and  _10
REMARK    5  A    between atoms: _6  and  _7
REMARK    6  A    between atoms: _6  and  _16
REMARK    7  A    between atoms: _12  and  _32
REMARK    8  A    between atoms: _14  and  _20
REMARK    9  A    between atoms: _15  and  _19
REMARK   10  A    between atoms: _19  and  _20
REMARK   11  A    between atoms: _22  and  _23
REMARK   12  A    between atoms: _24  and  _25
REMARK   13  A    between atoms: _26  and  _28
REMARK   14  A    between atoms: _28  and  _29
REMARK   15  A    between atoms: _28  and  _30
REMARK   16  A    between atoms: _30  and  _31
REMARK   17  A    between atoms: _30  and  _32
REMARK   18  A    between atoms: _33  and  _35
REMARK                            x       y       z     vdW  Elec       q    Type
REMARK                         _______ _______ _______ _____ _____    ______ ____
ROOT
ATOM      1  C   UNL     1      -5.638   8.240  24.739  0.00  0.00    +0.175 C 
ENDROOT
BRANCH   1   2
ATOM      2  C   UNL     1      -4.788   9.413  25.249  0.00  0.00    +0.176 C 
ATOM      3  O   UNL     1      -4.429   9.137  26.631  0.00  0.00    -0.332 OA
ATOM      4  C   UNL     1      -3.523  10.106  27.256  0.00  0.00    +0.277 C 
ATOM      5  C   UNL     1      -4.099  11.538  27.140  0.00  0.00    +0.110 C 
ATOM      6  C   UNL     1      -4.525  11.866  25.693  0.00  0.00    +0.143 C 
ATOM      7  C   UNL     1      -5.463  10.793  25.141  0.00  0.00    +0.133 C 
BRANCH   7   8
ATOM      8  N   UNL     1      -5.793  11.070  23.734  0.00  0.00    -0.308 N 
ATOM      9  H   UNL     1      -5.039  11.052  23.061  0.00  0.00    +0.149 HD
ATOM     10  C   UNL     1      -7.021  11.344  23.288  0.00  0.00    +0.210 C 
ATOM     11  C   UNL     1      -8.143  11.390  24.343  0.00  0.00    +0.109 C 
ATOM     12  O   UNL     1      -7.270  11.559  22.101  0.00  0.00    -0.276 OA
ENDBRANCH   7   8
BRANCH   4  13
ATOM     13  C   UNL     1      -2.130  10.055  26.595  0.00  0.00    +0.414 C 
ATOM     14  O   UNL     1      -1.738  10.993  25.902  0.00  0.00    -0.240 OA
ATOM     15  O   UNL     1      -1.398   9.078  26.756  0.00  0.00    -0.240 OA
ENDBRANCH   4  13
BRANCH   4  16
ATOM     16  O   UNL     1      -3.409   9.771  28.663  0.00  0.00    -0.343 OA
ATOM     17  C   UNL     1      -4.130  10.651  29.562  0.00  0.00    +0.198 C 
ENDBRANCH   4  16
BRANCH   6  18
ATOM     18  O   UNL     1      -5.186  13.131  25.661  0.00  0.00    -0.390 OA
ATOM     19  H   UNL     1      -5.187  13.516  26.540  0.00  0.00    +0.210 HD
ENDBRANCH   6  18
ENDBRANCH   1   2
BRANCH   1  20
ATOM     20  O   UNL     1      -5.853   7.285  25.797  0.00  0.00    -0.387 OA
ATOM     21  H   UNL     1      -5.008   7.034  26.178  0.00  0.00    +0.210 HD
ENDBRANCH   1  20
BRANCH   1  22
ATOM     22  C   UNL     1      -5.000   7.548  23.522  0.00  0.00    +0.163 C 
BRANCH  22  23
ATOM     23  O   UNL     1      -3.900   8.319  23.012  0.00  0.00    -0.388 OA
ATOM     24  H   UNL     1      -4.083   9.254  23.128  0.00  0.00    +0.210 HD
ENDBRANCH  22  23
BRANCH  22  25
ATOM     25  C   UNL     1      -6.052   7.357  22.435  0.00  0.00    +0.141 C 
BRANCH  25  28
ATOM     26  C   UNL     1      -5.889   8.504  20.252  0.00  0.00    +0.401 C 
ATOM     27  O   UNL     1      -5.521   7.496  19.644  0.00  0.00    -0.226 OA
ATOM     28  N   UNL     1      -6.154   8.531  21.559  0.00  0.00    -0.279 N 
ATOM     29  H   UNL     1      -6.441   9.408  21.969  0.00  0.00    +0.152 HD
BRANCH  26  30
ATOM     30  O   UNL     1      -6.044   9.730  19.534  0.00  0.00    -0.444 OA
BRANCH  30  31
ATOM     31  C   UNL     1      -4.757  10.247  19.187  0.00  0.00    +0.292 C 
BRANCH  31  33
ATOM     32  N   UNL     1      -3.524  10.509  21.320  0.00  0.00    -0.131 NA
ATOM     33  C   UNL     1      -4.220  11.073  20.285  0.00  0.00    +0.120 A 
ATOM     34  C   UNL     1      -4.294  12.434  20.482  0.00  0.00    +0.137 A 
ATOM     35  N   UNL     1      -3.684  12.630  21.684  0.00  0.00    -0.241 N 
ATOM     36  N   UNL     1      -3.182  11.474  22.162  0.00  0.00    -0.065 NA
BRANCH  35  37
ATOM     37  C   UNL     1      -3.381  13.857  22.391  0.00  0.00    +0.265 C 
BRANCH  37  38
ATOM     38  C   UNL     1      -4.534  14.812  22.547  0.00  0.00    +0.326 C 
ATOM     39  O   UNL     1      -4.527  16.011  22.311  0.00  0.00    -0.249 OA
BRANCH  38  40
ATOM     40  O   UNL     1      -5.655  14.202  23.016  0.00  0.00    -0.479 OA
ATOM     41  H   UNL     1      -5.544  13.672  23.828  0.00  0.00    +0.295 HD
ENDBRANCH  38  40
ENDBRANCH  37  38
ENDBRANCH  35  37
ENDBRANCH  31  33
ENDBRANCH  30  31
ENDBRANCH  26  30
ENDBRANCH  25  28
ENDBRANCH  22  25
ENDBRANCH   1  22
TORSDOF 16
