REMARK VINA RESULT:    -5.091      7.236     13.547
REMARK INTER + INTRA:         -12.712
REMARK INTER:                  -8.833
REMARK INTRA:                  -3.878
REMARK UNBOUND:                -3.157
REMARK  Name = lig_assembled_64.pdb
REMARK  19 active torsions:
REMARK  status: ('A' for Active; 'I' for Inactive)
REMARK    1  A    between atoms: _2  and  _10
REMARK    2  A    between atoms: _5  and  _27
REMARK    3  A    between atoms: _7  and  _8
REMARK    4  A    between atoms: _7  and  _27
REMARK    5  A    between atoms: _12  and  _13
REMARK    6  A    between atoms: _13  and  _21
REMARK    7  A    between atoms: _14  and  _15
REMARK    8  A    between atoms: _23  and  _43
REMARK    9  A    between atoms: _25  and  _31
REMARK   10  A    between atoms: _26  and  _30
REMARK   11  A    between atoms: _30  and  _31
REMARK   12  A    between atoms: _33  and  _34
REMARK   13  A    between atoms: _35  and  _36
REMARK   14  A    between atoms: _37  and  _39
REMARK   15  A    between atoms: _39  and  _40
REMARK   16  A    between atoms: _39  and  _41
REMARK   17  A    between atoms: _41  and  _42
REMARK   18  A    between atoms: _41  and  _43
REMARK   19  A    between atoms: _44  and  _46
REMARK                            x       y       z     vdW  Elec       q    Type
REMARK                         _______ _______ _______ _____ _____    ______ ____
ROOT
ATOM      1  C   UNL     1      -5.501  15.838  30.495  0.00  0.00    +0.401 C 
ATOM      2  O   UNL     1      -4.302  15.910  30.772  0.00  0.00    -0.226 OA
ATOM      3  N   UNL     1      -6.230  14.728  30.617  0.00  0.00    -0.279 N 
ATOM      4  H   UNL     1      -7.209  14.770  30.374  0.00  0.00    +0.152 HD
ENDROOT
BRANCH   3   5
ATOM      5  C   UNL     1      -5.688  13.446  31.087  0.00  0.00    +0.141 C 
BRANCH   5   6
ATOM      6  C   UNL     1      -5.442  12.477  29.935  0.00  0.00    +0.163 C 
BRANCH   6   7
ATOM      7  O   UNL     1      -6.480  12.610  28.950  0.00  0.00    -0.388 OA
ATOM      8  H   UNL     1      -6.713  13.537  28.854  0.00  0.00    +0.210 HD
ENDBRANCH   6   7
BRANCH   6   9
ATOM      9  C   UNL     1      -4.060  12.752  29.319  0.00  0.00    +0.175 C 
BRANCH   9  10
ATOM     10  C   UNL     1      -3.406  11.474  28.773  0.00  0.00    +0.176 C 
ATOM     11  O   UNL     1      -4.095  11.107  27.546  0.00  0.00    -0.332 OA
ATOM     12  C   UNL     1      -3.535   9.962  26.823  0.00  0.00    +0.277 C 
ATOM     13  C   UNL     1      -3.436   8.729  27.755  0.00  0.00    +0.110 C 
ATOM     14  C   UNL     1      -2.738   9.078  29.087  0.00  0.00    +0.143 C 
ATOM     15  C   UNL     1      -3.399  10.285  29.753  0.00  0.00    +0.133 C 
BRANCH  15  16
ATOM     16  N   UNL     1      -2.672  10.661  30.976  0.00  0.00    -0.308 N 
ATOM     17  H   UNL     1      -1.741  11.038  30.874  0.00  0.00    +0.149 HD
ATOM     18  C   UNL     1      -3.163  10.535  32.212  0.00  0.00    +0.210 C 
ATOM     19  C   UNL     1      -4.575   9.932  32.335  0.00  0.00    +0.109 C 
ATOM     20  O   UNL     1      -2.537  10.872  33.217  0.00  0.00    -0.276 OA
ENDBRANCH  15  16
BRANCH  12  21
ATOM     21  C   UNL     1      -2.138  10.298  26.262  0.00  0.00    +0.414 C 
ATOM     22  O   UNL     1      -1.907  11.415  25.801  0.00  0.00    -0.240 OA
ATOM     23  O   UNL     1      -1.241   9.454  26.272  0.00  0.00    -0.240 OA
ENDBRANCH  12  21
BRANCH  12  24
ATOM     24  O   UNL     1      -4.434   9.638  25.731  0.00  0.00    -0.343 OA
ATOM     25  C   UNL     1      -5.812  10.040  25.933  0.00  0.00    +0.198 C 
ENDBRANCH  12  24
BRANCH  14  26
ATOM     26  O   UNL     1      -2.803   7.958  29.972  0.00  0.00    -0.390 OA
ATOM     27  H   UNL     1      -3.174   7.204  29.508  0.00  0.00    +0.210 HD
ENDBRANCH  14  26
ENDBRANCH   9  10
BRANCH   9  28
ATOM     28  O   UNL     1      -3.197  13.375  30.291  0.00  0.00    -0.387 OA
ATOM     29  H   UNL     1      -2.989  14.269  30.009  0.00  0.00    +0.210 HD
ENDBRANCH   9  28
ENDBRANCH   6   9
ENDBRANCH   5   6
ENDBRANCH   3   5
BRANCH   1  30
ATOM     30  O   UNL     1      -6.174  17.005  30.015  0.00  0.00    -0.444 OA
BRANCH  30  31
ATOM     31  C   UNL     1      -7.493  16.654  29.587  0.00  0.00    +0.292 C 
BRANCH  31  33
ATOM     32  N   UNL     1      -8.084  14.816  28.029  0.00  0.00    -0.131 NA
ATOM     33  C   UNL     1      -7.452  16.002  28.264  0.00  0.00    +0.121 A 
ATOM     34  C   UNL     1      -6.830  16.415  27.109  0.00  0.00    +0.143 A 
ATOM     35  N   UNL     1      -7.107  15.433  26.187  0.00  0.00    -0.220 N 
ATOM     36  N   UNL     1      -7.872  14.477  26.763  0.00  0.00    -0.060 NA
BRANCH  35  37
ATOM     37  C   UNL     1      -6.701  15.360  24.832  0.00  0.00    +0.071 A 
ATOM     38  C   UNL     1      -7.084  16.346  23.929  0.00  0.00    +0.063 A 
ATOM     39  CA  UNL     1      -6.656  16.215  22.623  0.00  0.00    +0.150 A 
ATOM     40  N   UNL     1      -5.891  15.189  22.152  0.00  0.00    -0.240 NA
ATOM     41  C   UNL     1      -5.532  14.221  23.038  0.00  0.00    +0.074 A 
ATOM     42  C   UNL     1      -5.912  14.289  24.383  0.00  0.00    +0.056 A 
BRANCH  41  43
ATOM     43  C   UNL     1      -4.745  13.097  22.475  0.00  0.00    +0.000 A 
ATOM     44  C   UNL     1      -4.104  12.149  23.295  0.00  0.00    +0.010 A 
ATOM     45  C   UNL     1      -3.396  11.070  22.752  0.00  0.00    +0.001 A 
ATOM     46  C   UNL     1      -3.310  10.912  21.373  0.00  0.00    +0.000 A 
ATOM     47  C   UNL     1      -3.927  11.838  20.537  0.00  0.00    +0.001 A 
ATOM     48  C   UNL     1      -4.634  12.916  21.083  0.00  0.00    +0.010 A 
ENDBRANCH  41  43
BRANCH  39  49
ATOM     49  C   UNL     1      -7.044  17.249  21.620  0.00  0.00    +0.355 C 
ATOM     50  OXT UNL     1      -7.164  18.436  21.864  0.00  0.00    -0.243 OA
BRANCH  49  51
ATOM     51  O   UNL     1      -7.245  16.687  20.407  0.00  0.00    -0.476 OA
ATOM     52  H   UNL     1      -7.999  16.055  20.467  0.00  0.00    +0.295 HD
ENDBRANCH  49  51
ENDBRANCH  39  49
ENDBRANCH  35  37
ENDBRANCH  31  33
ENDBRANCH  30  31
ENDBRANCH   1  30
TORSDOF 17
