REMARK VINA RESULT:    -4.896      3.040      6.783
REMARK INTER + INTRA:         -11.608
REMARK INTER:                  -8.644
REMARK INTRA:                  -2.964
REMARK UNBOUND:                -2.848
REMARK  Name = lig_assembled_63.pdb
REMARK  17 active torsions:
REMARK  status: ('A' for Active; 'I' for Inactive)
REMARK    1  A    between atoms: _2  and  _11
REMARK    2  A    between atoms: _6  and  _20
REMARK    3  A    between atoms: _7  and  _15
REMARK    4  A    between atoms: _8  and  _9
REMARK    5  A    between atoms: _8  and  _20
REMARK    6  A    between atoms: _16  and  _36
REMARK    7  A    between atoms: _18  and  _24
REMARK    8  A    between atoms: _19  and  _23
REMARK    9  A    between atoms: _23  and  _24
REMARK   10  A    between atoms: _26  and  _27
REMARK   11  A    between atoms: _28  and  _29
REMARK   12  A    between atoms: _30  and  _32
REMARK   13  A    between atoms: _32  and  _33
REMARK   14  A    between atoms: _32  and  _34
REMARK   15  A    between atoms: _34  and  _35
REMARK   16  A    between atoms: _34  and  _36
REMARK   17  A    between atoms: _37  and  _39
REMARK                            x       y       z     vdW  Elec       q    Type
REMARK                         _______ _______ _______ _____ _____    ______ ____
ROOT
ATOM      1  C   UNL     1      -3.915  13.822  22.256  0.00  0.00    +0.163 C 
ENDROOT
BRANCH   1   2
ATOM      2  O   UNL     1      -3.205  15.072  22.239  0.00  0.00    -0.388 OA
ATOM      3  H   UNL     1      -3.463  15.576  21.464  0.00  0.00    +0.210 HD
ENDBRANCH   1   2
BRANCH   1   4
ATOM      4  C   UNL     1      -3.156  12.780  21.440  0.00  0.00    +0.141 C 
BRANCH   4   7
ATOM      5  C   UNL     1      -3.494  10.370  21.866  0.00  0.00    +0.401 C 
ATOM      6  O   UNL     1      -4.243  10.208  20.900  0.00  0.00    -0.226 OA
ATOM      7  N   UNL     1      -2.945  11.540  22.196  0.00  0.00    -0.279 N 
ATOM      8  H   UNL     1      -2.351  11.575  23.012  0.00  0.00    +0.152 HD
BRANCH   5   9
ATOM      9  O   UNL     1      -3.183   9.251  22.699  0.00  0.00    -0.444 OA
BRANCH   9  10
ATOM     10  C   UNL     1      -4.150   9.152  23.748  0.00  0.00    +0.292 C 
BRANCH  10  12
ATOM     11  N   UNL     1      -2.345  10.201  25.069  0.00  0.00    -0.131 NA
ATOM     12  C   UNL     1      -3.571   9.603  25.027  0.00  0.00    +0.121 A 
ATOM     13  C   UNL     1      -4.069   9.516  26.305  0.00  0.00    +0.145 A 
ATOM     14  N   UNL     1      -3.082  10.048  27.110  0.00  0.00    -0.200 N 
ATOM     15  N   UNL     1      -2.061  10.474  26.336  0.00  0.00    -0.059 NA
BRANCH  14  16
ATOM     16  C   UNL     1      -3.085  10.095  28.536  0.00  0.00    +0.173 A 
ATOM     17  C   UNL     1      -2.631   9.031  29.321  0.00  0.00    +0.096 A 
ATOM     18  C   UNL     1      -2.770   9.145  30.715  0.00  0.00    +0.024 A 
ATOM     19  C   UNL     1      -3.317  10.294  31.280  0.00  0.00    +0.021 A 
ATOM     20  C   UNL     1      -3.704  11.312  30.433  0.00  0.00    +0.113 A 
ATOM     21  N   UNL     1      -3.605  11.237  29.089  0.00  0.00    -0.235 NA
BRANCH  17  22
ATOM     22  C   UNL     1      -2.016   7.835  28.827  0.00  0.00    +0.103 C 
ATOM     23  N   UNL     1      -1.572   6.880  28.337  0.00  0.00    -0.191 NA
ENDBRANCH  17  22
ENDBRANCH  14  16
ENDBRANCH  10  12
ENDBRANCH   9  10
ENDBRANCH   5   9
ENDBRANCH   4   7
ENDBRANCH   1   4
BRANCH   1  24
ATOM     24  C   UNL     1      -5.334  13.988  21.685  0.00  0.00    +0.175 C 
BRANCH  24  25
ATOM     25  C   UNL     1      -6.143  15.046  22.449  0.00  0.00    +0.176 C 
ATOM     26  O   UNL     1      -5.606  16.353  22.105  0.00  0.00    -0.332 OA
ATOM     27  C   UNL     1      -6.327  17.501  22.663  0.00  0.00    +0.277 C 
ATOM     28  C   UNL     1      -6.445  17.371  24.201  0.00  0.00    +0.110 C 
ATOM     29  C   UNL     1      -6.982  15.986  24.616  0.00  0.00    +0.143 C 
ATOM     30  C   UNL     1      -6.161  14.865  23.978  0.00  0.00    +0.133 C 
BRANCH  30  31
ATOM     31  N   UNL     1      -6.736  13.552  24.310  0.00  0.00    -0.308 N 
ATOM     32  H   UNL     1      -7.634  13.316  23.913  0.00  0.00    +0.149 HD
ATOM     33  C   UNL     1      -6.147  12.652  25.103  0.00  0.00    +0.210 C 
ATOM     34  C   UNL     1      -4.791  13.052  25.713  0.00  0.00    +0.109 C 
ATOM     35  O   UNL     1      -6.645  11.553  25.352  0.00  0.00    -0.276 OA
ENDBRANCH  30  31
BRANCH  27  36
ATOM     36  C   UNL     1      -7.737  17.614  22.046  0.00  0.00    +0.414 C 
ATOM     37  O   UNL     1      -8.691  17.965  22.739  0.00  0.00    -0.240 OA
ATOM     38  O   UNL     1      -7.920  17.354  20.856  0.00  0.00    -0.240 OA
ENDBRANCH  27  36
BRANCH  27  39
ATOM     39  O   UNL     1      -5.565  18.699  22.362  0.00  0.00    -0.343 OA
ATOM     40  C   UNL     1      -4.444  18.502  21.464  0.00  0.00    +0.198 C 
ENDBRANCH  27  39
BRANCH  29  41
ATOM     41  O   UNL     1      -6.932  15.855  26.038  0.00  0.00    -0.390 OA
ATOM     42  H   UNL     1      -6.925  14.925  26.274  0.00  0.00    +0.210 HD
ENDBRANCH  29  41
ENDBRANCH  24  25
BRANCH  24  43
ATOM     43  O   UNL     1      -6.027  12.724  21.704  0.00  0.00    -0.387 OA
ATOM     44  H   UNL     1      -6.283  12.486  20.810  0.00  0.00    +0.210 HD
ENDBRANCH  24  43
ENDBRANCH   1  24
TORSDOF 15
