REMARK VINA RESULT:    -4.651      5.234      7.132
REMARK INTER + INTRA:         -11.665
REMARK INTER:                  -8.886
REMARK INTRA:                  -2.779
REMARK UNBOUND:                -2.799
REMARK  Name = lig_assembled_55.pdb
REMARK  20 active torsions:
REMARK  status: ('A' for Active; 'I' for Inactive)
REMARK    1  A    between atoms: _2  and  _10
REMARK    2  A    between atoms: _3  and  _11
REMARK    3  A    between atoms: _3  and  _38
REMARK    4  A    between atoms: _5  and  _18
REMARK    5  A    between atoms: _6  and  _38
REMARK    6  A    between atoms: _7  and  _8
REMARK    7  A    between atoms: _7  and  _18
REMARK    8  A    between atoms: _10  and  _11
REMARK    9  A    between atoms: _14  and  _34
REMARK   10  A    between atoms: _16  and  _22
REMARK   11  A    between atoms: _17  and  _21
REMARK   12  A    between atoms: _21  and  _22
REMARK   13  A    between atoms: _24  and  _25
REMARK   14  A    between atoms: _26  and  _27
REMARK   15  A    between atoms: _28  and  _30
REMARK   16  A    between atoms: _30  and  _31
REMARK   17  A    between atoms: _30  and  _32
REMARK   18  A    between atoms: _32  and  _33
REMARK   19  A    between atoms: _32  and  _34
REMARK   20  A    between atoms: _35  and  _37
REMARK                            x       y       z     vdW  Elec       q    Type
REMARK                         _______ _______ _______ _____ _____    ______ ____
ROOT
ATOM      1  C   UNL     1      -6.527   9.394  23.410  0.00  0.00    +0.163 C 
ENDROOT
BRANCH   1   2
ATOM      2  O   UNL     1      -7.213   9.420  24.673  0.00  0.00    -0.388 OA
ATOM      3  H   UNL     1      -7.784   8.652  24.744  0.00  0.00    +0.210 HD
ENDBRANCH   1   2
BRANCH   1   4
ATOM      4  C   UNL     1      -5.219   8.591  23.511  0.00  0.00    +0.175 C 
BRANCH   4   5
ATOM      5  C   UNL     1      -4.102   9.391  24.198  0.00  0.00    +0.176 C 
ATOM      6  O   UNL     1      -4.413   9.463  25.617  0.00  0.00    -0.332 OA
ATOM      7  C   UNL     1      -3.396  10.104  26.457  0.00  0.00    +0.277 C 
ATOM      8  C   UNL     1      -3.065  11.519  25.920  0.00  0.00    +0.110 C 
ATOM      9  C   UNL     1      -2.758  11.497  24.408  0.00  0.00    +0.143 C 
ATOM     10  C   UNL     1      -3.879  10.805  23.631  0.00  0.00    +0.133 C 
BRANCH  10  11
ATOM     11  N   UNL     1      -3.535  10.713  22.203  0.00  0.00    -0.308 N 
ATOM     12  H   UNL     1      -2.795  10.080  21.936  0.00  0.00    +0.149 HD
ATOM     13  C   UNL     1      -4.138  11.412  21.238  0.00  0.00    +0.210 C 
ATOM     14  C   UNL     1      -5.245  12.388  21.680  0.00  0.00    +0.109 C 
ATOM     15  O   UNL     1      -3.839  11.304  20.048  0.00  0.00    -0.276 OA
ENDBRANCH  10  11
BRANCH   7  16
ATOM     16  C   UNL     1      -2.109   9.255  26.501  0.00  0.00    +0.414 C 
ATOM     17  O   UNL     1      -1.006   9.801  26.514  0.00  0.00    -0.240 OA
ATOM     18  O   UNL     1      -2.173   8.025  26.525  0.00  0.00    -0.240 OA
ENDBRANCH   7  16
BRANCH   7  19
ATOM     19  O   UNL     1      -3.940  10.239  27.795  0.00  0.00    -0.343 OA
ATOM     20  C   UNL     1      -3.583  11.466  28.481  0.00  0.00    +0.198 C 
ENDBRANCH   7  19
BRANCH   9  21
ATOM     21  O   UNL     1      -2.608  12.833  23.928  0.00  0.00    -0.390 OA
ATOM     22  H   UNL     1      -1.710  12.962  23.614  0.00  0.00    +0.210 HD
ENDBRANCH   9  21
ENDBRANCH   4   5
BRANCH   4  23
ATOM     23  O   UNL     1      -4.793   8.169  22.200  0.00  0.00    -0.387 OA
ATOM     24  H   UNL     1      -5.546   8.161  21.605  0.00  0.00    +0.210 HD
ENDBRANCH   4  23
ENDBRANCH   1   4
BRANCH   1  25
ATOM     25  C   UNL     1      -7.424   8.774  22.343  0.00  0.00    +0.141 C 
BRANCH  25  28
ATOM     26  C   UNL     1      -6.926   9.217  19.963  0.00  0.00    +0.401 C 
ATOM     27  O   UNL     1      -6.323   8.155  19.795  0.00  0.00    -0.226 OA
ATOM     28  N   UNL     1      -7.468   9.591  21.123  0.00  0.00    -0.279 N 
ATOM     29  H   UNL     1      -7.935  10.486  21.166  0.00  0.00    +0.152 HD
BRANCH  26  30
ATOM     30  O   UNL     1      -7.062  10.121  18.864  0.00  0.00    -0.444 OA
BRANCH  30  31
ATOM     31  C   UNL     1      -6.660   9.468  17.656  0.00  0.00    +0.292 C 
BRANCH  31  33
ATOM     32  N   UNL     1      -5.581  11.638  17.164  0.00  0.00    -0.131 NA
ATOM     33  C   UNL     1      -5.677  10.292  16.928  0.00  0.00    +0.120 A 
ATOM     34  C   UNL     1      -4.755   9.937  15.968  0.00  0.00    +0.137 A 
ATOM     35  N   UNL     1      -4.144  11.111  15.647  0.00  0.00    -0.250 N 
ATOM     36  N   UNL     1      -4.642  12.131  16.371  0.00  0.00    -0.065 NA
BRANCH  35  37
ATOM     37  C   UNL     1      -3.076  11.335  14.698  0.00  0.00    +0.162 C 
BRANCH  37  38
ATOM     38  C   UNL     1      -3.094  10.370  13.507  0.00  0.00    +0.129 C 
BRANCH  38  39
ATOM     39  N   UNL     1      -1.860   9.540  13.389  0.00  0.00    -0.193 NA
ATOM     40  H   UNL     1      -1.136   9.878  14.036  0.00  0.00    +0.148 HD
BRANCH  39  41
ATOM     41  S   UNL     1      -2.077   7.871  13.461  0.00  0.00    +0.027 S 
ATOM     42  O   UNL     1      -1.131   7.288  12.534  0.00  0.00    -0.158 OA
ATOM     43  O   UNL     1      -2.092   7.492  14.856  0.00  0.00    -0.158 OA
ATOM     44  C   UNL     1      -3.709   7.693  12.781  0.00  0.00    +0.214 C 
ENDBRANCH  39  41
ENDBRANCH  38  39
ENDBRANCH  37  38
ENDBRANCH  35  37
ENDBRANCH  31  33
ENDBRANCH  30  31
ENDBRANCH  26  30
ENDBRANCH  25  28
ENDBRANCH   1  25
TORSDOF 17
