REMARK VINA RESULT:    -5.366      2.125      3.006
REMARK INTER + INTRA:         -11.763
REMARK INTER:                  -9.369
REMARK INTRA:                  -2.394
REMARK UNBOUND:                -2.475
REMARK  Name = lig_assembled_25.pdb
REMARK  16 active torsions:
REMARK  status: ('A' for Active; 'I' for Inactive)
REMARK    1  A    between atoms: _2  and  _9
REMARK    2  A    between atoms: _4  and  _25
REMARK    3  A    between atoms: _6  and  _7
REMARK    4  A    between atoms: _6  and  _25
REMARK    5  A    between atoms: _21  and  _41
REMARK    6  A    between atoms: _23  and  _29
REMARK    7  A    between atoms: _24  and  _28
REMARK    8  A    between atoms: _28  and  _29
REMARK    9  A    between atoms: _31  and  _32
REMARK   10  A    between atoms: _33  and  _34
REMARK   11  A    between atoms: _35  and  _37
REMARK   12  A    between atoms: _37  and  _38
REMARK   13  A    between atoms: _37  and  _39
REMARK   14  A    between atoms: _39  and  _40
REMARK   15  A    between atoms: _39  and  _41
REMARK   16  A    between atoms: _42  and  _44
REMARK                            x       y       z     vdW  Elec       q    Type
REMARK                         _______ _______ _______ _____ _____    ______ ____
ROOT
ATOM      1  C   UNL     1      -5.257   8.531  22.526  0.00  0.00    +0.141 C 
ENDROOT
BRANCH   1   4
ATOM      2  C   UNL     1      -3.836  10.365  21.674  0.00  0.00    +0.401 C 
ATOM      3  O   UNL     1      -2.806   9.937  22.200  0.00  0.00    -0.226 OA
ATOM      4  N   UNL     1      -5.027   9.774  21.779  0.00  0.00    -0.279 N 
ATOM      5  H   UNL     1      -5.816  10.206  21.319  0.00  0.00    +0.152 HD
BRANCH   2   6
ATOM      6  O   UNL     1      -3.775  11.567  20.902  0.00  0.00    -0.444 OA
BRANCH   6   7
ATOM      7  C   UNL     1      -5.100  12.043  20.653  0.00  0.00    +0.292 C 
BRANCH   7   9
ATOM      8  N   UNL     1      -6.669  12.278  18.761  0.00  0.00    -0.131 NA
ATOM      9  C   UNL     1      -5.432  11.919  19.221  0.00  0.00    +0.120 A 
ATOM     10  C   UNL     1      -4.677  11.453  18.168  0.00  0.00    +0.138 A 
ATOM     11  N   UNL     1      -5.516  11.535  17.092  0.00  0.00    -0.240 N 
ATOM     12  N   UNL     1      -6.712  12.044  17.457  0.00  0.00    -0.064 NA
BRANCH  11  13
ATOM     13  C   UNL     1      -5.322  11.092  15.721  0.00  0.00    +0.170 C 
ATOM     14  C   UNL     1      -4.402   9.882  15.625  0.00  0.00    -0.011 A 
ATOM     15  C   UNL     1      -3.324  10.164  14.757  0.00  0.00    -0.012 A 
ATOM     16  C   UNL     1      -3.455  11.522  14.270  0.00  0.00    -0.012 A 
ATOM     17  C   UNL     1      -2.671  12.233  13.376  0.00  0.00    +0.009 A 
ATOM     18  C   UNL     1      -3.050  13.539  13.052  0.00  0.00    +0.001 A 
ATOM     19  C   UNL     1      -4.196  14.119  13.622  0.00  0.00    +0.000 A 
ATOM     20  C   UNL     1      -4.989  13.404  14.524  0.00  0.00    +0.006 A 
ATOM     21  C   UNL     1      -2.365   9.201  14.495  0.00  0.00    +0.009 A 
ATOM     22  C   UNL     1      -2.492   7.950  15.107  0.00  0.00    +0.001 A 
ATOM     23  C   UNL     1      -3.568   7.673  15.966  0.00  0.00    +0.000 A 
ATOM     24  C   UNL     1      -4.538   8.640  16.231  0.00  0.00    +0.006 A 
ATOM     25  C   UNL     1      -4.608  12.109  14.841  0.00  0.00    -0.011 A 
ENDBRANCH  11  13
ENDBRANCH   7   9
ENDBRANCH   6   7
ENDBRANCH   2   6
ENDBRANCH   1   4
BRANCH   1  26
ATOM     26  C   UNL     1      -6.292   8.715  23.630  0.00  0.00    +0.163 C 
BRANCH  26  27
ATOM     27  O   UNL     1      -6.587   7.449  24.243  0.00  0.00    -0.388 OA
ATOM     28  H   UNL     1      -5.772   6.959  24.375  0.00  0.00    +0.210 HD
ENDBRANCH  26  27
BRANCH  26  29
ATOM     29  C   UNL     1      -5.763   9.718  24.669  0.00  0.00    +0.175 C 
BRANCH  29  30
ATOM     30  C   UNL     1      -4.446   9.251  25.306  0.00  0.00    +0.176 C 
ATOM     31  O   UNL     1      -4.770   8.296  26.354  0.00  0.00    -0.332 OA
ATOM     32  C   UNL     1      -3.623   7.658  27.007  0.00  0.00    +0.277 C 
ATOM     33  C   UNL     1      -2.650   8.729  27.558  0.00  0.00    +0.110 C 
ATOM     34  C   UNL     1      -2.301   9.785  26.488  0.00  0.00    +0.143 C 
ATOM     35  C   UNL     1      -3.567  10.382  25.872  0.00  0.00    +0.133 C 
BRANCH  35  36
ATOM     36  N   UNL     1      -3.222  11.322  24.795  0.00  0.00    -0.308 N 
ATOM     37  H   UNL     1      -2.594  11.002  24.072  0.00  0.00    +0.149 HD
ATOM     38  C   UNL     1      -3.685  12.572  24.710  0.00  0.00    +0.210 C 
ATOM     39  C   UNL     1      -4.620  13.040  25.842  0.00  0.00    +0.109 C 
ATOM     40  O   UNL     1      -3.391  13.334  23.788  0.00  0.00    -0.276 OA
ENDBRANCH  35  36
BRANCH  32  41
ATOM     41  C   UNL     1      -2.873   6.739  26.021  0.00  0.00    +0.414 C 
ATOM     42  O   UNL     1      -1.650   6.813  25.912  0.00  0.00    -0.240 OA
ATOM     43  O   UNL     1      -3.491   5.924  25.335  0.00  0.00    -0.240 OA
ENDBRANCH  32  41
BRANCH  34  44
ATOM     44  O   UNL     1      -1.528  10.831  27.078  0.00  0.00    -0.390 OA
ATOM     45  H   UNL     1      -1.323  11.493  26.414  0.00  0.00    +0.210 HD
ENDBRANCH  34  44
BRANCH  32  46
ATOM     46  O   UNL     1      -4.120   6.875  28.123  0.00  0.00    -0.343 OA
ATOM     47  C   UNL     1      -3.096   6.245  28.933  0.00  0.00    +0.198 C 
ENDBRANCH  32  46
ENDBRANCH  29  30
BRANCH  29  48
ATOM     48  O   UNL     1      -6.755   9.946  25.690  0.00  0.00    -0.387 OA
ATOM     49  H   UNL     1      -6.329  10.285  26.481  0.00  0.00    +0.210 HD
ENDBRANCH  29  48
ENDBRANCH  26  29
ENDBRANCH   1  26
TORSDOF 14
