REMARK VINA RESULT:    -5.062      2.588     11.603
REMARK INTER + INTRA:         -12.239
REMARK INTER:                  -9.444
REMARK INTRA:                  -2.795
REMARK UNBOUND:                -2.590
REMARK  Name = lig_assembled_29.pdb
REMARK  21 active torsions:
REMARK  status: ('A' for Active; 'I' for Inactive)
REMARK    1  A    between atoms: _2  and  _9
REMARK    2  A    between atoms: _4  and  _23
REMARK    3  A    between atoms: _6  and  _7
REMARK    4  A    between atoms: _6  and  _23
REMARK    5  A    between atoms: _9  and  _10
REMARK    6  A    between atoms: _12  and  _18
REMARK    7  A    between atoms: _13  and  _18
REMARK    8  A    between atoms: _14  and  _17
REMARK    9  A    between atoms: _15  and  _17
REMARK   10  A    between atoms: _19  and  _39
REMARK   11  A    between atoms: _21  and  _27
REMARK   12  A    between atoms: _22  and  _26
REMARK   13  A    between atoms: _26  and  _27
REMARK   14  A    between atoms: _29  and  _30
REMARK   15  A    between atoms: _31  and  _32
REMARK   16  A    between atoms: _33  and  _35
REMARK   17  A    between atoms: _35  and  _36
REMARK   18  A    between atoms: _35  and  _37
REMARK   19  A    between atoms: _37  and  _38
REMARK   20  A    between atoms: _37  and  _39
REMARK   21  A    between atoms: _40  and  _42
REMARK                            x       y       z     vdW  Elec       q    Type
REMARK                         _______ _______ _______ _____ _____    ______ ____
ROOT
ATOM      1  C   UNL     1      -5.320   8.506  17.219  0.00  0.00    +0.163 C 
ENDROOT
BRANCH   1   2
ATOM      2  O   UNL     1      -4.182   7.679  17.511  0.00  0.00    -0.388 OA
ATOM      3  H   UNL     1      -4.475   6.780  17.682  0.00  0.00    +0.210 HD
ENDBRANCH   1   2
BRANCH   1   4
ATOM      4  C   UNL     1      -5.764   8.335  15.756  0.00  0.00    +0.175 C 
BRANCH   4   5
ATOM      5  C   UNL     1      -4.671   8.764  14.766  0.00  0.00    +0.176 C 
ATOM      6  O   UNL     1      -3.598   7.785  14.831  0.00  0.00    -0.332 OA
ATOM      7  C   UNL     1      -2.507   7.975  13.871  0.00  0.00    +0.277 C 
ATOM      8  C   UNL     1      -1.920   9.402  13.995  0.00  0.00    +0.110 C 
ATOM      9  C   UNL     1      -3.026  10.478  13.963  0.00  0.00    +0.143 C 
ATOM     10  C   UNL     1      -4.111  10.180  14.999  0.00  0.00    +0.133 C 
BRANCH  10  11
ATOM     11  N   UNL     1      -5.202  11.162  14.899  0.00  0.00    -0.308 N 
ATOM     12  H   UNL     1      -5.800  11.122  14.086  0.00  0.00    +0.149 HD
ATOM     13  C   UNL     1      -5.453  12.103  15.813  0.00  0.00    +0.210 C 
ATOM     14  C   UNL     1      -4.508  12.155  17.028  0.00  0.00    +0.109 C 
ATOM     15  O   UNL     1      -6.383  12.904  15.710  0.00  0.00    -0.276 OA
ENDBRANCH  10  11
BRANCH   7  16
ATOM     16  C   UNL     1      -3.001   7.744  12.428  0.00  0.00    +0.414 C 
ATOM     17  O   UNL     1      -3.790   6.833  12.181  0.00  0.00    -0.240 OA
ATOM     18  O   UNL     1      -2.611   8.468  11.511  0.00  0.00    -0.240 OA
ENDBRANCH   7  16
BRANCH   7  19
ATOM     19  O   UNL     1      -1.460   7.021  14.187  0.00  0.00    -0.343 OA
ATOM     20  C   UNL     1      -0.977   7.072  15.553  0.00  0.00    +0.198 C 
ENDBRANCH   7  19
BRANCH   9  21
ATOM     21  O   UNL     1      -2.459  11.761  14.231  0.00  0.00    -0.390 OA
ATOM     22  H   UNL     1      -3.117  12.441  14.073  0.00  0.00    +0.210 HD
ENDBRANCH   9  21
ENDBRANCH   4   5
BRANCH   4  23
ATOM     23  O   UNL     1      -6.974   9.080  15.514  0.00  0.00    -0.387 OA
ATOM     24  H   UNL     1      -7.698   8.682  16.002  0.00  0.00    +0.210 HD
ENDBRANCH   4  23
ENDBRANCH   1   4
BRANCH   1  25
ATOM     25  C   UNL     1      -6.476   8.151  18.147  0.00  0.00    +0.141 C 
BRANCH  25  28
ATOM     26  C   UNL     1      -7.586  10.228  18.895  0.00  0.00    +0.401 C 
ATOM     27  O   UNL     1      -8.215  10.381  17.846  0.00  0.00    -0.226 OA
ATOM     28  N   UNL     1      -6.745   9.217  19.120  0.00  0.00    -0.279 N 
ATOM     29  H   UNL     1      -6.267   9.183  20.009  0.00  0.00    +0.152 HD
BRANCH  26  30
ATOM     30  O   UNL     1      -7.747  11.182  19.948  0.00  0.00    -0.444 OA
BRANCH  30  31
ATOM     31  C   UNL     1      -6.987  12.356  19.649  0.00  0.00    +0.292 C 
BRANCH  31  33
ATOM     32  N   UNL     1      -4.773  11.695  20.549  0.00  0.00    -0.131 NA
ATOM     33  C   UNL     1      -5.874  12.508  20.605  0.00  0.00    +0.120 A 
ATOM     34  C   UNL     1      -5.711  13.418  21.624  0.00  0.00    +0.137 A 
ATOM     35  N   UNL     1      -4.452  13.166  22.088  0.00  0.00    -0.247 N 
ATOM     36  N   UNL     1      -3.910  12.101  21.472  0.00  0.00    -0.065 NA
BRANCH  35  37
ATOM     37  C   UNL     1      -3.692  13.919  23.068  0.00  0.00    +0.180 C 
BRANCH  37  38
ATOM     38  C   UNL     1      -3.734  13.241  24.419  0.00  0.00    -0.022 A 
ATOM     39  C   UNL     1      -4.884  13.338  25.222  0.00  0.00    +0.054 A 
ATOM     40  C   UNL     1      -4.967  12.650  26.441  0.00  0.00    +0.162 A 
ATOM     41  C   UNL     1      -3.881  11.859  26.868  0.00  0.00    +0.162 A 
ATOM     42  C   UNL     1      -2.740  11.765  26.068  0.00  0.00    +0.050 A 
ATOM     43  C   UNL     1      -2.666  12.452  24.854  0.00  0.00    +0.009 A 
BRANCH  40  44
ATOM     44  O   UNL     1      -6.060  12.676  27.272  0.00  0.00    -0.491 OA
ATOM     45  C   UNL     1      -6.378  13.904  27.911  0.00  0.00    +0.277 C 
ENDBRANCH  40  44
BRANCH  41  46
ATOM     46  O   UNL     1      -4.036  11.222  28.076  0.00  0.00    -0.491 OA
ATOM     47  C   UNL     1      -3.052  10.268  28.450  0.00  0.00    +0.277 C 
ENDBRANCH  41  46
ENDBRANCH  37  38
ENDBRANCH  35  37
ENDBRANCH  31  33
ENDBRANCH  30  31
ENDBRANCH  26  30
ENDBRANCH  25  28
ENDBRANCH   1  25
TORSDOF 17
