REMARK VINA RESULT:    -5.018      3.961     13.940
REMARK INTER + INTRA:         -12.258
REMARK INTER:                  -9.438
REMARK INTRA:                  -2.821
REMARK UNBOUND:                -2.840
REMARK  Name = lig_assembled_77.pdb
REMARK  19 active torsions:
REMARK  status: ('A' for Active; 'I' for Inactive)
REMARK    1  A    between atoms: _2  and  _10
REMARK    2  A    between atoms: _3  and  _17
REMARK    3  A    between atoms: _5  and  _27
REMARK    4  A    between atoms: _7  and  _8
REMARK    5  A    between atoms: _7  and  _27
REMARK    6  A    between atoms: _13  and  _47
REMARK    7  A    between atoms: _14  and  _47
REMARK    8  A    between atoms: _23  and  _43
REMARK    9  A    between atoms: _25  and  _31
REMARK   10  A    between atoms: _26  and  _30
REMARK   11  A    between atoms: _30  and  _31
REMARK   12  A    between atoms: _33  and  _34
REMARK   13  A    between atoms: _35  and  _36
REMARK   14  A    between atoms: _37  and  _39
REMARK   15  A    between atoms: _39  and  _40
REMARK   16  A    between atoms: _39  and  _41
REMARK   17  A    between atoms: _41  and  _42
REMARK   18  A    between atoms: _41  and  _43
REMARK   19  A    between atoms: _44  and  _46
REMARK                            x       y       z     vdW  Elec       q    Type
REMARK                         _______ _______ _______ _____ _____    ______ ____
ROOT
ATOM      1  C   UNL     1      -5.036  10.726  18.642  0.00  0.00    +0.401 C 
ATOM      2  O   UNL     1      -4.940   9.499  18.555  0.00  0.00    -0.226 OA
ATOM      3  N   UNL     1      -6.034  11.434  18.113  0.00  0.00    -0.279 N 
ATOM      4  H   UNL     1      -6.030  12.436  18.246  0.00  0.00    +0.152 HD
ENDROOT
BRANCH   3   5
ATOM      5  C   UNL     1      -7.138  10.841  17.349  0.00  0.00    +0.141 C 
BRANCH   5   6
ATOM      6  C   UNL     1      -6.938  10.998  15.845  0.00  0.00    +0.163 C 
BRANCH   6   7
ATOM      7  O   UNL     1      -6.167  12.180  15.573  0.00  0.00    -0.388 OA
ATOM      8  H   UNL     1      -5.240  11.946  15.487  0.00  0.00    +0.210 HD
ENDBRANCH   6   7
BRANCH   6   9
ATOM      9  C   UNL     1      -6.240   9.746  15.286  0.00  0.00    +0.175 C 
BRANCH   9  10
ATOM     10  C   UNL     1      -4.893  10.080  14.628  0.00  0.00    +0.176 C 
ATOM     11  O   UNL     1      -5.163  10.618  13.305  0.00  0.00    -0.332 OA
ATOM     12  C   UNL     1      -3.992  11.094  12.563  0.00  0.00    +0.277 C 
ATOM     13  C   UNL     1      -2.923   9.978  12.466  0.00  0.00    +0.110 C 
ATOM     14  C   UNL     1      -2.625   9.353  13.845  0.00  0.00    +0.143 C 
ATOM     15  C   UNL     1      -3.914   8.896  14.529  0.00  0.00    +0.133 C 
BRANCH  15  16
ATOM     16  N   UNL     1      -3.626   8.382  15.878  0.00  0.00    -0.308 N 
ATOM     17  H   UNL     1      -3.283   9.035  16.568  0.00  0.00    +0.149 HD
ATOM     18  C   UNL     1      -3.789   7.109  16.249  0.00  0.00    +0.210 C 
ATOM     19  C   UNL     1      -4.289   6.133  15.166  0.00  0.00    +0.109 C 
ATOM     20  O   UNL     1      -3.554   6.710  17.390  0.00  0.00    -0.276 OA
ENDBRANCH  15  16
BRANCH  12  21
ATOM     21  C   UNL     1      -3.381  12.336  13.244  0.00  0.00    +0.414 C 
ATOM     22  O   UNL     1      -4.110  13.181  13.762  0.00  0.00    -0.240 OA
ATOM     23  O   UNL     1      -2.160  12.493  13.276  0.00  0.00    -0.240 OA
ENDBRANCH  12  21
BRANCH  14  24
ATOM     24  O   UNL     1      -1.752   8.234  13.688  0.00  0.00    -0.390 OA
ATOM     25  H   UNL     1      -2.267   7.424  13.683  0.00  0.00    +0.210 HD
ENDBRANCH  14  24
BRANCH  12  26
ATOM     26  O   UNL     1      -4.420  11.436  11.219  0.00  0.00    -0.343 OA
ATOM     27  C   UNL     1      -3.417  11.244  10.190  0.00  0.00    +0.198 C 
ENDBRANCH  12  26
ENDBRANCH   9  10
BRANCH   9  28
ATOM     28  O   UNL     1      -7.102   9.077  14.343  0.00  0.00    -0.387 OA
ATOM     29  H   UNL     1      -6.646   8.984  13.503  0.00  0.00    +0.210 HD
ENDBRANCH   9  28
ENDBRANCH   6   9
ENDBRANCH   5   6
ENDBRANCH   3   5
BRANCH   1  30
ATOM     30  O   UNL     1      -4.029  11.452  19.351  0.00  0.00    -0.444 OA
BRANCH  30  31
ATOM     31  C   UNL     1      -4.640  12.228  20.386  0.00  0.00    +0.292 C 
BRANCH  31  33
ATOM     32  N   UNL     1      -3.134  10.920  21.847  0.00  0.00    -0.131 NA
ATOM     33  C   UNL     1      -4.209  11.749  21.713  0.00  0.00    +0.121 A 
ATOM     34  C   UNL     1      -4.736  12.007  22.958  0.00  0.00    +0.143 A 
ATOM     35  N   UNL     1      -3.932  11.313  23.834  0.00  0.00    -0.220 N 
ATOM     36  N   UNL     1      -2.977  10.652  23.135  0.00  0.00    -0.060 NA
BRANCH  35  37
ATOM     37  C   UNL     1      -3.974  11.289  25.254  0.00  0.00    +0.067 A 
ATOM     38  C   UNL     1      -2.907  11.790  26.015  0.00  0.00    +0.030 A 
ATOM     39  C   UNL     1      -2.911  11.648  27.406  0.00  0.00    +0.029 A 
ATOM     40  C   UNL     1      -3.984  11.010  28.034  0.00  0.00    +0.094 A 
ATOM     41  C   UNL     1      -5.093  10.590  27.295  0.00  0.00    +0.029 A 
ATOM     42  C   UNL     1      -5.083  10.718  25.903  0.00  0.00    +0.030 A 
BRANCH  40  43
ATOM     43  S   UNL     1      -3.955  10.768  29.799  0.00  0.00    +0.025 S 
ATOM     44  O   UNL     1      -5.267  10.256  30.158  0.00  0.00    -0.164 OA
ATOM     45  O   UNL     1      -2.756  10.014  30.113  0.00  0.00    -0.164 OA
BRANCH  43  46
ATOM     46  C   UNL     1      -3.776  12.351  30.595  0.00  0.00    +0.094 A 
ATOM     47  C   UNL     1      -4.480  13.467  30.142  0.00  0.00    +0.029 A 
ATOM     48  C   UNL     1      -4.269  14.709  30.752  0.00  0.00    +0.024 A 
ATOM     49  C   UNL     1      -3.396  14.840  31.841  0.00  0.00    +0.025 A 
ATOM     50  C   UNL     1      -2.677  13.717  32.261  0.00  0.00    +0.024 A 
ATOM     51  C   UNL     1      -2.878  12.472  31.659  0.00  0.00    +0.029 A 
BRANCH  49  52
ATOM     52  N   UNL     1      -3.064  16.108  32.328  0.00  0.00    -0.358 N 
ATOM     53  H   UNL     1      -3.528  16.878  31.858  0.00  0.00    +0.142 HD
ATOM     54  H   UNL     1      -3.099  16.191  33.338  0.00  0.00    +0.142 HD
ENDBRANCH  49  52
ENDBRANCH  43  46
ENDBRANCH  40  43
ENDBRANCH  35  37
ENDBRANCH  31  33
ENDBRANCH  30  31
ENDBRANCH   1  30
TORSDOF 17
