REMARK VINA RESULT:    -5.253      1.766      2.469
REMARK INTER + INTRA:         -14.415
REMARK INTER:                  -9.507
REMARK INTRA:                  -4.908
REMARK UNBOUND:                -3.788
REMARK  Name = lig_assembled_81.pdb
REMARK  22 active torsions:
REMARK  status: ('A' for Active; 'I' for Inactive)
REMARK    1  A    between atoms: _2  and  _12
REMARK    2  A    between atoms: _7  and  _30
REMARK    3  A    between atoms: _8  and  _24
REMARK    4  A    between atoms: _9  and  _10
REMARK    5  A    between atoms: _9  and  _30
REMARK    6  A    between atoms: _14  and  _15
REMARK    7  A    between atoms: _21  and  _22
REMARK    8  A    between atoms: _22  and  _23
REMARK    9  A    between atoms: _23  and  _25
REMARK   10  A    between atoms: _24  and  _25
REMARK   11  A    between atoms: _26  and  _46
REMARK   12  A    between atoms: _28  and  _34
REMARK   13  A    between atoms: _29  and  _33
REMARK   14  A    between atoms: _33  and  _34
REMARK   15  A    between atoms: _36  and  _37
REMARK   16  A    between atoms: _38  and  _39
REMARK   17  A    between atoms: _40  and  _42
REMARK   18  A    between atoms: _42  and  _43
REMARK   19  A    between atoms: _42  and  _44
REMARK   20  A    between atoms: _44  and  _45
REMARK   21  A    between atoms: _44  and  _46
REMARK   22  A    between atoms: _47  and  _49
REMARK                            x       y       z     vdW  Elec       q    Type
REMARK                         _______ _______ _______ _____ _____    ______ ____
ROOT
ATOM      1  C   UNL     1      -4.126   7.226  23.534  0.00  0.00    +0.401 C 
ATOM      2  O   UNL     1      -3.999   7.682  22.395  0.00  0.00    -0.226 OA
ATOM      3  N   UNL     1      -5.300   7.077  24.150  0.00  0.00    -0.279 N 
ATOM      4  H   UNL     1      -5.303   6.685  25.081  0.00  0.00    +0.152 HD
ENDROOT
BRANCH   1   5
ATOM      5  O   UNL     1      -2.960   6.821  24.255  0.00  0.00    -0.444 OA
BRANCH   5   6
ATOM      6  C   UNL     1      -3.319   6.492  25.599  0.00  0.00    +0.289 C 
BRANCH   6   8
ATOM      7  N   UNL     1      -1.890   8.354  26.307  0.00  0.00    -0.130 NA
ATOM      8  C   UNL     1      -3.022   7.623  26.502  0.00  0.00    +0.100 C 
ATOM      9  C   UNL     1      -3.685   8.120  27.608  0.00  0.00    +0.124 C 
ATOM     10  N   UNL     1      -2.972   9.256  27.964  0.00  0.00    -0.187 N 
ATOM     11  N   UNL     1      -1.810   9.245  27.280  0.00  0.00    -0.010 NA
BRANCH  10  12
ATOM     12  C   UNL     1      -3.257  10.186  29.020  0.00  0.00    +0.150 A 
ATOM     13  C   UNL     1      -3.704  11.520  28.847  0.00  0.00    +0.022 A 
ATOM     14  C   UNL     1      -3.827  12.232  30.069  0.00  0.00    +0.081 A 
ATOM     15  N   UNL     1      -3.469  11.678  31.259  0.00  0.00    -0.214 NA
ATOM     16  C   UNL     1      -3.037  10.428  31.289  0.00  0.00    +0.215 A 
ATOM     17  N   UNL     1      -2.596   9.919  32.487  0.00  0.00    -0.327 N 
ATOM     18  H   UNL     1      -2.982  10.429  33.267  0.00  0.00    +0.145 HD
ATOM     19  H   UNL     1      -2.625   8.911  32.499  0.00  0.00    +0.145 HD
ATOM     20  N   UNL     1      -3.007   9.633  30.238  0.00  0.00    -0.198 NA
BRANCH  14  21
ATOM     21  C   UNL     1      -4.317  13.648  30.276  0.00  0.00    +0.001 A 
ATOM     22  C   UNL     1      -5.627  14.095  30.023  0.00  0.00    +0.010 A 
ATOM     23  C   UNL     1      -6.026  15.424  30.248  0.00  0.00    +0.001 A 
ATOM     24  C   UNL     1      -5.146  16.341  30.792  0.00  0.00    +0.000 A 
ATOM     25  C   UNL     1      -3.854  15.932  31.111  0.00  0.00    +0.001 A 
ATOM     26  C   UNL     1      -3.453  14.615  30.844  0.00  0.00    +0.010 A 
ENDBRANCH  14  21
BRANCH  13  27
ATOM     27  C   UNL     1      -4.158  12.217  27.560  0.00  0.00    +0.069 C 
BRANCH  27  28
ATOM     28  C   UNL     1      -5.578  12.072  27.048  0.00  0.00    +0.164 C 
BRANCH  28  29
ATOM     29  O   UNL     1      -6.285  10.897  27.460  0.00  0.00    -0.380 OA
BRANCH  29  30
ATOM     30  C   UNL     1      -7.362  11.350  28.305  0.00  0.00    +0.156 C 
ATOM     31  C   UNL     1      -8.101  12.517  27.692  0.00  0.00    +0.034 C 
ENDBRANCH  29  30
ENDBRANCH  28  29
ENDBRANCH  27  28
ENDBRANCH  13  27
ENDBRANCH  10  12
ENDBRANCH   6   8
ENDBRANCH   5   6
ENDBRANCH   1   5
BRANCH   3  32
ATOM     32  C   UNL     1      -6.587   7.452  23.552  0.00  0.00    +0.141 C 
BRANCH  32  33
ATOM     33  C   UNL     1      -7.140   8.740  24.153  0.00  0.00    +0.163 C 
BRANCH  33  34
ATOM     34  O   UNL     1      -6.297   9.182  25.230  0.00  0.00    -0.388 OA
ATOM     35  H   UNL     1      -6.686   8.924  26.069  0.00  0.00    +0.210 HD
ENDBRANCH  33  34
BRANCH  33  36
ATOM     36  C   UNL     1      -7.243   9.816  23.059  0.00  0.00    +0.175 C 
BRANCH  36  37
ATOM     37  C   UNL     1      -5.883  10.458  22.749  0.00  0.00    +0.176 C 
ATOM     38  O   UNL     1      -5.814  11.724  23.460  0.00  0.00    -0.332 OA
ATOM     39  C   UNL     1      -4.535  12.435  23.368  0.00  0.00    +0.277 C 
ATOM     40  C   UNL     1      -4.139  12.645  21.885  0.00  0.00    +0.110 C 
ATOM     41  C   UNL     1      -4.228  11.331  21.081  0.00  0.00    +0.143 C 
ATOM     42  C   UNL     1      -5.598  10.674  21.251  0.00  0.00    +0.133 C 
BRANCH  42  43
ATOM     43  N   UNL     1      -5.640   9.381  20.551  0.00  0.00    -0.308 N 
ATOM     44  H   UNL     1      -5.027   8.647  20.878  0.00  0.00    +0.149 HD
ATOM     45  C   UNL     1      -6.436   9.113  19.512  0.00  0.00    +0.210 C 
ATOM     46  C   UNL     1      -7.340  10.260  19.022  0.00  0.00    +0.109 C 
ATOM     47  O   UNL     1      -6.461   8.016  18.954  0.00  0.00    -0.276 OA
ENDBRANCH  42  43
BRANCH  39  48
ATOM     48  C   UNL     1      -3.421  11.653  24.093  0.00  0.00    +0.414 C 
ATOM     49  O   UNL     1      -2.320  12.170  24.279  0.00  0.00    -0.240 OA
ATOM     50  O   UNL     1      -3.622  10.505  24.493  0.00  0.00    -0.240 OA
ENDBRANCH  39  48
BRANCH  39  51
ATOM     51  O   UNL     1      -4.699  13.737  23.986  0.00  0.00    -0.343 OA
ATOM     52  C   UNL     1      -4.862  14.839  23.058  0.00  0.00    +0.198 C 
ENDBRANCH  39  51
BRANCH  41  53
ATOM     53  O   UNL     1      -4.003  11.598  19.696  0.00  0.00    -0.390 OA
ATOM     54  H   UNL     1      -3.071  11.779  19.552  0.00  0.00    +0.210 HD
ENDBRANCH  41  53
ENDBRANCH  36  37
BRANCH  36  55
ATOM     55  O   UNL     1      -8.194  10.828  23.445  0.00  0.00    -0.387 OA
ATOM     56  H   UNL     1      -8.913  10.852  22.809  0.00  0.00    +0.210 HD
ENDBRANCH  36  55
ENDBRANCH  33  36
ENDBRANCH  32  33
ENDBRANCH   3  32
TORSDOF 19
