REMARK VINA RESULT:    -4.326      2.301      3.692
REMARK INTER + INTRA:         -11.081
REMARK INTER:                  -8.184
REMARK INTRA:                  -2.897
REMARK UNBOUND:                -2.835
REMARK  Name = lig_assembled_13.pdb
REMARK  20 active torsions:
REMARK  status: ('A' for Active; 'I' for Inactive)
REMARK    1  A    between atoms: _2  and  _9
REMARK    2  A    between atoms: _4  and  _18
REMARK    3  A    between atoms: _5  and  _11
REMARK    4  A    between atoms: _6  and  _7
REMARK    5  A    between atoms: _6  and  _18
REMARK    6  A    between atoms: _9  and  _10
REMARK    7  A    between atoms: _10  and  _12
REMARK    8  A    between atoms: _11  and  _12
REMARK    9  A    between atoms: _14  and  _34
REMARK   10  A    between atoms: _16  and  _22
REMARK   11  A    between atoms: _17  and  _21
REMARK   12  A    between atoms: _21  and  _22
REMARK   13  A    between atoms: _24  and  _25
REMARK   14  A    between atoms: _26  and  _27
REMARK   15  A    between atoms: _28  and  _30
REMARK   16  A    between atoms: _30  and  _31
REMARK   17  A    between atoms: _30  and  _32
REMARK   18  A    between atoms: _32  and  _33
REMARK   19  A    between atoms: _32  and  _34
REMARK   20  A    between atoms: _35  and  _37
REMARK                            x       y       z     vdW  Elec       q    Type
REMARK                         _______ _______ _______ _____ _____    ______ ____
ROOT
ATOM      1  C   UNL     1      -2.761  11.253  25.950  0.00  0.00    +0.163 C 
ENDROOT
BRANCH   1   2
ATOM      2  O   UNL     1      -2.013  12.211  25.184  0.00  0.00    -0.388 OA
ATOM      3  H   UNL     1      -2.616  12.836  24.774  0.00  0.00    +0.210 HD
ENDBRANCH   1   2
BRANCH   1   4
ATOM      4  C   UNL     1      -3.937  10.693  25.133  0.00  0.00    +0.175 C 
BRANCH   4   5
ATOM      5  C   UNL     1      -4.981  11.771  24.807  0.00  0.00    +0.176 C 
ATOM      6  O   UNL     1      -4.431  12.624  23.764  0.00  0.00    -0.332 OA
ATOM      7  C   UNL     1      -5.335  13.655  23.247  0.00  0.00    +0.277 C 
ATOM      8  C   UNL     1      -5.880  14.528  24.404  0.00  0.00    +0.110 C 
ATOM      9  C   UNL     1      -6.446  13.665  25.551  0.00  0.00    +0.143 C 
ATOM     10  C   UNL     1      -5.424  12.624  26.010  0.00  0.00    +0.133 C 
BRANCH  10  11
ATOM     11  N   UNL     1      -6.005  11.751  27.042  0.00  0.00    -0.308 N 
ATOM     12  H   UNL     1      -6.736  11.112  26.763  0.00  0.00    +0.149 HD
ATOM     13  C   UNL     1      -5.632  11.750  28.325  0.00  0.00    +0.210 C 
ATOM     14  C   UNL     1      -4.535  12.755  28.724  0.00  0.00    +0.109 C 
ATOM     15  O   UNL     1      -6.126  10.998  29.165  0.00  0.00    -0.276 OA
ENDBRANCH  10  11
BRANCH   7  16
ATOM     16  C   UNL     1      -6.515  13.016  22.484  0.00  0.00    +0.414 C 
ATOM     17  O   UNL     1      -7.554  13.650  22.306  0.00  0.00    -0.240 OA
ATOM     18  O   UNL     1      -6.427  11.868  22.048  0.00  0.00    -0.240 OA
ENDBRANCH   7  16
BRANCH   7  19
ATOM     19  O   UNL     1      -4.578  14.507  22.349  0.00  0.00    -0.343 OA
ATOM     20  C   UNL     1      -3.455  13.862  21.696  0.00  0.00    +0.198 C 
ENDBRANCH   7  19
BRANCH   9  21
ATOM     21  O   UNL     1      -6.795  14.500  26.655  0.00  0.00    -0.390 OA
ATOM     22  H   UNL     1      -7.740  14.673  26.640  0.00  0.00    +0.210 HD
ENDBRANCH   9  21
ENDBRANCH   4   5
BRANCH   4  23
ATOM     23  O   UNL     1      -4.557   9.600  25.840  0.00  0.00    -0.387 OA
ATOM     24  H   UNL     1      -3.878   9.028  26.205  0.00  0.00    +0.210 HD
ENDBRANCH   4  23
ENDBRANCH   1   4
BRANCH   1  25
ATOM     25  C   UNL     1      -1.852  10.108  26.386  0.00  0.00    +0.141 C 
BRANCH  25  28
ATOM     26  C   UNL     1      -1.949   8.464  28.228  0.00  0.00    +0.401 C 
ATOM     27  O   UNL     1      -1.594   7.515  27.525  0.00  0.00    -0.226 OA
ATOM     28  N   UNL     1      -2.102   9.710  27.777  0.00  0.00    -0.279 N 
ATOM     29  H   UNL     1      -2.408  10.419  28.428  0.00  0.00    +0.152 HD
BRANCH  26  30
ATOM     30  O   UNL     1      -2.224   8.238  29.613  0.00  0.00    -0.444 OA
BRANCH  30  31
ATOM     31  C   UNL     1      -3.589   8.563  29.888  0.00  0.00    +0.292 C 
BRANCH  31  33
ATOM     32  N   UNL     1      -4.715   9.565  31.852  0.00  0.00    -0.131 NA
ATOM     33  C   UNL     1      -3.673   9.566  30.965  0.00  0.00    +0.120 A 
ATOM     34  C   UNL     1      -2.823  10.601  31.270  0.00  0.00    +0.137 A 
ATOM     35  N   UNL     1      -3.438  11.236  32.309  0.00  0.00    -0.241 N 
ATOM     36  N   UNL     1      -4.549  10.584  32.687  0.00  0.00    -0.065 NA
BRANCH  35  37
ATOM     37  C   UNL     1      -2.983  12.391  33.050  0.00  0.00    +0.265 C 
BRANCH  37  38
ATOM     38  C   UNL     1      -2.624  13.535  32.146  0.00  0.00    +0.329 C 
ATOM     39  O   UNL     1      -1.498  13.876  31.816  0.00  0.00    -0.249 OA
BRANCH  38  40
ATOM     40  O   UNL     1      -3.763  14.219  31.822  0.00  0.00    -0.464 OA
BRANCH  40  41
ATOM     41  C   UNL     1      -3.546  15.516  31.247  0.00  0.00    +0.229 C 
ATOM     42  C   UNL     1      -3.804  16.553  32.327  0.00  0.00    +0.048 C 
ENDBRANCH  40  41
ENDBRANCH  38  40
ENDBRANCH  37  38
ENDBRANCH  35  37
ENDBRANCH  31  33
ENDBRANCH  30  31
ENDBRANCH  26  30
ENDBRANCH  25  28
ENDBRANCH   1  25
TORSDOF 17
