REMARK VINA RESULT:    -5.309      1.772      2.337
REMARK INTER + INTRA:         -12.418
REMARK INTER:                  -9.396
REMARK INTRA:                  -3.022
REMARK UNBOUND:                -2.453
REMARK  Name = lig_assembled_75.pdb
REMARK  19 active torsions:
REMARK  status: ('A' for Active; 'I' for Inactive)
REMARK    1  A    between atoms: _2  and  _9
REMARK    2  A    between atoms: _4  and  _23
REMARK    3  A    between atoms: _6  and  _7
REMARK    4  A    between atoms: _6  and  _23
REMARK    5  A    between atoms: _11  and  _12
REMARK    6  A    between atoms: _13  and  _14
REMARK    7  A    between atoms: _14  and  _17
REMARK    8  A    between atoms: _19  and  _39
REMARK    9  A    between atoms: _21  and  _27
REMARK   10  A    between atoms: _22  and  _26
REMARK   11  A    between atoms: _26  and  _27
REMARK   12  A    between atoms: _29  and  _30
REMARK   13  A    between atoms: _31  and  _32
REMARK   14  A    between atoms: _33  and  _35
REMARK   15  A    between atoms: _35  and  _36
REMARK   16  A    between atoms: _35  and  _37
REMARK   17  A    between atoms: _37  and  _38
REMARK   18  A    between atoms: _37  and  _39
REMARK   19  A    between atoms: _40  and  _42
REMARK                            x       y       z     vdW  Elec       q    Type
REMARK                         _______ _______ _______ _____ _____    ______ ____
ROOT
ATOM      1  C   UNL     1      -3.853  13.243  22.933  0.00  0.00    +0.141 C 
ENDROOT
BRANCH   1   4
ATOM      2  C   UNL     1      -5.944  13.417  21.627  0.00  0.00    +0.401 C 
ATOM      3  O   UNL     1      -6.608  13.850  22.571  0.00  0.00    -0.226 OA
ATOM      4  N   UNL     1      -4.651  13.101  21.709  0.00  0.00    -0.279 N 
ATOM      5  H   UNL     1      -4.194  12.744  20.881  0.00  0.00    +0.152 HD
BRANCH   2   6
ATOM      6  O   UNL     1      -6.578  13.231  20.359  0.00  0.00    -0.444 OA
BRANCH   6   7
ATOM      7  C   UNL     1      -7.186  11.937  20.315  0.00  0.00    +0.292 C 
BRANCH   7   9
ATOM      8  N   UNL     1      -5.490  10.137  20.328  0.00  0.00    -0.131 NA
ATOM      9  C   UNL     1      -6.303  10.978  19.625  0.00  0.00    +0.121 A 
ATOM     10  C   UNL     1      -6.128  10.754  18.279  0.00  0.00    +0.143 A 
ATOM     11  N   UNL     1      -5.185   9.755  18.204  0.00  0.00    -0.220 N 
ATOM     12  N   UNL     1      -4.812   9.399  19.459  0.00  0.00    -0.060 NA
BRANCH  11  13
ATOM     13  C   UNL     1      -4.612   9.155  17.053  0.00  0.00    +0.068 A 
ATOM     14  C   UNL     1      -4.010   9.971  16.079  0.00  0.00    +0.035 A 
ATOM     15  C   UNL     1      -3.493   9.418  14.899  0.00  0.00    -0.023 A 
ATOM     16  C   UNL     1      -3.528   8.028  14.736  0.00  0.00    +0.008 A 
ATOM     17  C   UNL     1      -4.104   7.210  15.711  0.00  0.00    +0.003 A 
ATOM     18  C   UNL     1      -4.654   7.770  16.864  0.00  0.00    +0.028 A 
BRANCH  15  19
ATOM     19  C   UNL     1      -2.897  10.241  13.836  0.00  0.00    +0.015 C 
ATOM     20  C   UNL     1      -3.377  11.438  13.460  0.00  0.00    +0.092 C 
BRANCH  20  21
ATOM     21  C   UNL     1      -2.741  12.164  12.345  0.00  0.00    +0.330 C 
ATOM     22  O   UNL     1      -3.293  13.006  11.660  0.00  0.00    -0.246 OA
BRANCH  21  23
ATOM     23  O   UNL     1      -1.454  11.797  12.174  0.00  0.00    -0.478 OA
ATOM     24  H   UNL     1      -1.146  11.065  12.738  0.00  0.00    +0.295 HD
ENDBRANCH  21  23
ENDBRANCH  20  21
ENDBRANCH  15  19
ENDBRANCH  11  13
ENDBRANCH   7   9
ENDBRANCH   6   7
ENDBRANCH   2   6
ENDBRANCH   1   4
BRANCH   1  25
ATOM     25  C   UNL     1      -2.959  12.030  23.173  0.00  0.00    +0.163 C 
BRANCH  25  26
ATOM     26  O   UNL     1      -2.227  12.194  24.399  0.00  0.00    -0.388 OA
ATOM     27  H   UNL     1      -1.695  12.992  24.350  0.00  0.00    +0.210 HD
ENDBRANCH  25  26
BRANCH  25  28
ATOM     28  C   UNL     1      -3.821  10.756  23.213  0.00  0.00    +0.175 C 
BRANCH  28  29
ATOM     29  C   UNL     1      -4.031  10.246  24.646  0.00  0.00    +0.176 C 
ATOM     30  O   UNL     1      -2.928   9.355  24.970  0.00  0.00    -0.332 OA
ATOM     31  C   UNL     1      -2.904   8.849  26.345  0.00  0.00    +0.277 C 
ATOM     32  C   UNL     1      -4.249   8.166  26.695  0.00  0.00    +0.110 C 
ATOM     33  C   UNL     1      -5.453   9.063  26.339  0.00  0.00    +0.143 C 
ATOM     34  C   UNL     1      -5.376   9.534  24.886  0.00  0.00    +0.133 C 
BRANCH  34  35
ATOM     35  N   UNL     1      -6.481  10.457  24.585  0.00  0.00    -0.308 N 
ATOM     36  H   UNL     1      -6.493  11.349  25.059  0.00  0.00    +0.149 HD
ATOM     37  C   UNL     1      -7.469  10.194  23.725  0.00  0.00    +0.210 C 
ATOM     38  C   UNL     1      -7.436   8.816  23.038  0.00  0.00    +0.109 C 
ATOM     39  O   UNL     1      -8.374  10.993  23.481  0.00  0.00    -0.276 OA
ENDBRANCH  34  35
BRANCH  31  40
ATOM     40  C   UNL     1      -2.633   9.994  27.344  0.00  0.00    +0.414 C 
ATOM     41  O   UNL     1      -2.073  11.024  26.970  0.00  0.00    -0.240 OA
ATOM     42  O   UNL     1      -2.974   9.888  28.523  0.00  0.00    -0.240 OA
ENDBRANCH  31  40
BRANCH  31  43
ATOM     43  O   UNL     1      -1.849   7.858  26.441  0.00  0.00    -0.343 OA
ATOM     44  C   UNL     1      -2.217   6.636  27.128  0.00  0.00    +0.198 C 
ENDBRANCH  31  43
BRANCH  33  45
ATOM     45  O   UNL     1      -6.668   8.338  26.534  0.00  0.00    -0.390 OA
ATOM     46  H   UNL     1      -6.613   7.492  26.084  0.00  0.00    +0.210 HD
ENDBRANCH  33  45
ENDBRANCH  28  29
BRANCH  28  47
ATOM     47  O   UNL     1      -3.223   9.726  22.401  0.00  0.00    -0.387 OA
ATOM     48  H   UNL     1      -3.235   8.894  22.880  0.00  0.00    +0.210 HD
ENDBRANCH  28  47
ENDBRANCH  25  28
ENDBRANCH   1  25
TORSDOF 17
