REMARK VINA RESULT:    -4.624      2.187      7.335
REMARK INTER + INTRA:         -11.343
REMARK INTER:                  -8.020
REMARK INTRA:                  -3.323
REMARK UNBOUND:                -2.934
REMARK  Name = lig_assembled_72.pdb
REMARK  20 active torsions:
REMARK  status: ('A' for Active; 'I' for Inactive)
REMARK    1  A    between atoms: _2  and  _9
REMARK    2  A    between atoms: _4  and  _17
REMARK    3  A    between atoms: _5  and  _9
REMARK    4  A    between atoms: _5  and  _12
REMARK    5  A    between atoms: _6  and  _7
REMARK    6  A    between atoms: _6  and  _17
REMARK    7  A    between atoms: _9  and  _10
REMARK    8  A    between atoms: _9  and  _11
REMARK    9  A    between atoms: _13  and  _33
REMARK   10  A    between atoms: _15  and  _21
REMARK   11  A    between atoms: _16  and  _20
REMARK   12  A    between atoms: _20  and  _21
REMARK   13  A    between atoms: _23  and  _24
REMARK   14  A    between atoms: _25  and  _26
REMARK   15  A    between atoms: _27  and  _29
REMARK   16  A    between atoms: _29  and  _30
REMARK   17  A    between atoms: _29  and  _31
REMARK   18  A    between atoms: _31  and  _32
REMARK   19  A    between atoms: _31  and  _33
REMARK   20  A    between atoms: _34  and  _36
REMARK                            x       y       z     vdW  Elec       q    Type
REMARK                         _______ _______ _______ _____ _____    ______ ____
ROOT
ATOM      1  C   UNL     1      -6.286   8.600  23.189  0.00  0.00    +0.163 C 
ENDROOT
BRANCH   1   2
ATOM      2  O   UNL     1      -6.101   8.872  24.588  0.00  0.00    -0.388 OA
ATOM      3  H   UNL     1      -5.224   8.590  24.857  0.00  0.00    +0.210 HD
ENDBRANCH   1   2
BRANCH   1   4
ATOM      4  C   UNL     1      -6.139   9.884  22.355  0.00  0.00    +0.175 C 
BRANCH   4   5
ATOM      5  C   UNL     1      -4.892  10.690  22.748  0.00  0.00    +0.176 C 
ATOM      6  O   UNL     1      -5.187  11.394  23.986  0.00  0.00    -0.332 OA
ATOM      7  C   UNL     1      -4.068  12.138  24.573  0.00  0.00    +0.277 C 
ATOM      8  C   UNL     1      -3.471  13.124  23.539  0.00  0.00    +0.110 C 
ATOM      9  C   UNL     1      -3.171  12.427  22.195  0.00  0.00    +0.143 C 
ATOM     10  C   UNL     1      -4.402  11.681  21.677  0.00  0.00    +0.133 C 
BRANCH  10  11
ATOM     11  N   UNL     1      -4.079  10.950  20.442  0.00  0.00    -0.308 N 
ATOM     12  H   UNL     1      -3.298  10.309  20.463  0.00  0.00    +0.149 HD
ATOM     13  C   UNL     1      -4.749  11.079  19.294  0.00  0.00    +0.210 C 
ATOM     14  C   UNL     1      -5.917  12.083  19.286  0.00  0.00    +0.109 C 
ATOM     15  O   UNL     1      -4.465  10.442  18.278  0.00  0.00    -0.276 OA
ENDBRANCH  10  11
BRANCH   7  16
ATOM     16  C   UNL     1      -2.967  11.174  25.062  0.00  0.00    +0.414 C 
ATOM     17  O   UNL     1      -3.081   9.962  24.885  0.00  0.00    -0.240 OA
ATOM     18  O   UNL     1      -1.966  11.609  25.633  0.00  0.00    -0.240 OA
ENDBRANCH   7  16
BRANCH   9  19
ATOM     19  O   UNL     1      -2.767  13.397  21.229  0.00  0.00    -0.390 OA
ATOM     20  H   UNL     1      -1.829  13.575  21.326  0.00  0.00    +0.210 HD
ENDBRANCH   9  19
BRANCH   7  21
ATOM     21  O   UNL     1      -4.579  12.905  25.694  0.00  0.00    -0.343 OA
ATOM     22  C   UNL     1      -5.948  13.360  25.552  0.00  0.00    +0.198 C 
ENDBRANCH   7  21
ENDBRANCH   4   5
BRANCH   4  23
ATOM     23  O   UNL     1      -7.320  10.700  22.488  0.00  0.00    -0.387 OA
ATOM     24  H   UNL     1      -8.102  10.154  22.377  0.00  0.00    +0.210 HD
ENDBRANCH   4  23
ENDBRANCH   1   4
BRANCH   1  25
ATOM     25  C   UNL     1      -5.266   7.568  22.720  0.00  0.00    +0.141 C 
BRANCH  25  28
ATOM     26  C   UNL     1      -3.725   6.433  24.284  0.00  0.00    +0.401 C 
ATOM     27  O   UNL     1      -4.337   5.363  24.258  0.00  0.00    -0.226 OA
ATOM     28  N   UNL     1      -4.092   7.518  23.600  0.00  0.00    -0.279 N 
ATOM     29  H   UNL     1      -3.531   8.353  23.694  0.00  0.00    +0.152 HD
BRANCH  26  30
ATOM     30  O   UNL     1      -2.551   6.542  25.092  0.00  0.00    -0.444 OA
BRANCH  30  31
ATOM     31  C   UNL     1      -2.871   6.216  26.447  0.00  0.00    +0.292 C 
BRANCH  31  33
ATOM     32  N   UNL     1      -1.689   8.179  27.377  0.00  0.00    -0.131 NA
ATOM     33  C   UNL     1      -2.827   7.425  27.289  0.00  0.00    +0.120 A 
ATOM     34  C   UNL     1      -3.803   7.992  28.079  0.00  0.00    +0.137 A 
ATOM     35  N   UNL     1      -3.200   9.093  28.622  0.00  0.00    -0.244 N 
ATOM     36  N   UNL     1      -1.927   9.194  28.193  0.00  0.00    -0.065 NA
BRANCH  35  37
ATOM     37  C   UNL     1      -3.775  10.083  29.545  0.00  0.00    +0.083 C 
ATOM     38  C   UNL     1      -2.805  10.303  30.721  0.00  0.00    +0.038 C 
ATOM     39  C   UNL     1      -5.125   9.567  30.083  0.00  0.00    +0.038 C 
BRANCH  37  40
ATOM     40  C   UNL     1      -3.996  11.454  28.849  0.00  0.00    +0.185 C 
BRANCH  40  41
ATOM     41  O   UNL     1      -2.807  11.966  28.251  0.00  0.00    -0.393 OA
ATOM     42  H   UNL     1      -2.272  11.182  27.999  0.00  0.00    +0.209 HD
ENDBRANCH  40  41
ENDBRANCH  37  40
ENDBRANCH  35  37
ENDBRANCH  31  33
ENDBRANCH  30  31
ENDBRANCH  26  30
ENDBRANCH  25  28
ENDBRANCH   1  25
TORSDOF 16
