REMARK VINA RESULT:    -5.816      4.505     10.104
REMARK INTER + INTRA:         -12.542
REMARK INTER:                  -8.999
REMARK INTRA:                  -3.542
REMARK UNBOUND:                -2.475
REMARK  Name = lig_assembled_25.pdb
REMARK  16 active torsions:
REMARK  status: ('A' for Active; 'I' for Inactive)
REMARK    1  A    between atoms: _2  and  _9
REMARK    2  A    between atoms: _4  and  _25
REMARK    3  A    between atoms: _6  and  _7
REMARK    4  A    between atoms: _6  and  _25
REMARK    5  A    between atoms: _21  and  _41
REMARK    6  A    between atoms: _23  and  _29
REMARK    7  A    between atoms: _24  and  _28
REMARK    8  A    between atoms: _28  and  _29
REMARK    9  A    between atoms: _31  and  _32
REMARK   10  A    between atoms: _33  and  _34
REMARK   11  A    between atoms: _35  and  _37
REMARK   12  A    between atoms: _37  and  _38
REMARK   13  A    between atoms: _37  and  _39
REMARK   14  A    between atoms: _39  and  _40
REMARK   15  A    between atoms: _39  and  _41
REMARK   16  A    between atoms: _42  and  _44
REMARK                            x       y       z     vdW  Elec       q    Type
REMARK                         _______ _______ _______ _____ _____    ______ ____
ROOT
ATOM      1  C   UNL     1      -3.841  12.111  22.248  0.00  0.00    +0.141 C 
ENDROOT
BRANCH   1   4
ATOM      2  C   UNL     1      -4.842  14.128  23.265  0.00  0.00    +0.401 C 
ATOM      3  O   UNL     1      -4.297  14.908  22.480  0.00  0.00    -0.226 OA
ATOM      4  N   UNL     1      -4.679  12.805  23.233  0.00  0.00    -0.279 N 
ATOM      5  H   UNL     1      -5.160  12.248  23.925  0.00  0.00    +0.152 HD
BRANCH   2   6
ATOM      6  O   UNL     1      -5.700  14.651  24.282  0.00  0.00    -0.444 OA
BRANCH   6   7
ATOM      7  C   UNL     1      -6.780  13.742  24.510  0.00  0.00    +0.292 C 
BRANCH   7   9
ATOM      8  N   UNL     1      -7.856  12.565  26.396  0.00  0.00    -0.131 NA
ATOM      9  C   UNL     1      -6.884  13.416  25.946  0.00  0.00    +0.120 A 
ATOM     10  C   UNL     1      -6.138  13.856  27.017  0.00  0.00    +0.138 A 
ATOM     11  N   UNL     1      -6.716  13.251  28.097  0.00  0.00    -0.240 N 
ATOM     12  N   UNL     1      -7.745  12.465  27.712  0.00  0.00    -0.064 NA
BRANCH  11  13
ATOM     13  C   UNL     1      -6.435  13.408  29.515  0.00  0.00    +0.170 C 
ATOM     14  C   UNL     1      -5.912  14.797  29.855  0.00  0.00    -0.011 A 
ATOM     15  C   UNL     1      -4.669  14.695  30.519  0.00  0.00    -0.012 A 
ATOM     16  C   UNL     1      -4.309  13.296  30.630  0.00  0.00    -0.012 A 
ATOM     17  C   UNL     1      -3.211  12.699  31.228  0.00  0.00    +0.009 A 
ATOM     18  C   UNL     1      -3.126  11.304  31.219  0.00  0.00    +0.001 A 
ATOM     19  C   UNL     1      -4.128  10.525  30.614  0.00  0.00    +0.000 A 
ATOM     20  C   UNL     1      -5.236  11.125  30.010  0.00  0.00    +0.006 A 
ATOM     21  C   UNL     1      -4.008  15.834  30.948  0.00  0.00    +0.009 A 
ATOM     22  C   UNL     1      -4.601  17.078  30.710  0.00  0.00    +0.001 A 
ATOM     23  C   UNL     1      -5.839  17.173  30.053  0.00  0.00    +0.000 A 
ATOM     24  C   UNL     1      -6.509  16.028  29.621  0.00  0.00    +0.006 A 
ATOM     25  C   UNL     1      -5.315  12.510  30.023  0.00  0.00    -0.011 A 
ENDBRANCH  11  13
ENDBRANCH   7   9
ENDBRANCH   6   7
ENDBRANCH   2   6
ENDBRANCH   1   4
BRANCH   1  26
ATOM     26  C   UNL     1      -4.535  10.878  21.677  0.00  0.00    +0.163 C 
BRANCH  26  27
ATOM     27  O   UNL     1      -4.028  10.593  20.363  0.00  0.00    -0.388 OA
ATOM     28  H   UNL     1      -3.148  10.215  20.434  0.00  0.00    +0.210 HD
ENDBRANCH  26  27
BRANCH  26  29
ATOM     29  C   UNL     1      -4.318   9.683  22.622  0.00  0.00    +0.175 C 
BRANCH  29  30
ATOM     30  C   UNL     1      -4.314  10.107  24.098  0.00  0.00    +0.176 C 
ATOM     31  O   UNL     1      -3.088   9.612  24.702  0.00  0.00    -0.332 OA
ATOM     32  C   UNL     1      -2.859  10.013  26.093  0.00  0.00    +0.277 C 
ATOM     33  C   UNL     1      -4.071   9.624  26.975  0.00  0.00    +0.110 C 
ATOM     34  C   UNL     1      -5.402  10.102  26.357  0.00  0.00    +0.143 C 
ATOM     35  C   UNL     1      -5.535   9.631  24.908  0.00  0.00    +0.133 C 
BRANCH  35  36
ATOM     36  N   UNL     1      -6.765  10.166  24.303  0.00  0.00    -0.308 N 
ATOM     37  H   UNL     1      -6.858  11.169  24.231  0.00  0.00    +0.149 HD
ATOM     38  C   UNL     1      -7.767   9.411  23.844  0.00  0.00    +0.210 C 
ATOM     39  C   UNL     1      -7.607   7.887  23.993  0.00  0.00    +0.109 C 
ATOM     40  O   UNL     1      -8.780   9.886  23.328  0.00  0.00    -0.276 OA
ENDBRANCH  35  36
BRANCH  32  41
ATOM     41  C   UNL     1      -2.618  11.534  26.191  0.00  0.00    +0.414 C 
ATOM     42  O   UNL     1      -2.884  12.139  27.229  0.00  0.00    -0.240 OA
ATOM     43  O   UNL     1      -2.157  12.155  25.233  0.00  0.00    -0.240 OA
ENDBRANCH  32  41
BRANCH  34  44
ATOM     44  O   UNL     1      -6.498   9.594  27.119  0.00  0.00    -0.390 OA
ATOM     45  H   UNL     1      -7.113   9.144  26.536  0.00  0.00    +0.210 HD
ENDBRANCH  34  44
BRANCH  32  46
ATOM     46  O   UNL     1      -1.693   9.301  26.580  0.00  0.00    -0.343 OA
ATOM     47  C   UNL     1      -1.775   8.861  27.959  0.00  0.00    +0.198 C 
ENDBRANCH  32  46
ENDBRANCH  29  30
BRANCH  29  48
ATOM     48  O   UNL     1      -3.087   9.009  22.295  0.00  0.00    -0.387 OA
ATOM     49  H   UNL     1      -2.364   9.640  22.303  0.00  0.00    +0.210 HD
ENDBRANCH  29  48
ENDBRANCH  26  29
ENDBRANCH   1  26
TORSDOF 14
