REMARK VINA RESULT:    -4.532      2.015      2.579
REMARK INTER + INTRA:         -10.351
REMARK INTER:                  -7.561
REMARK INTRA:                  -2.790
REMARK UNBOUND:                -2.508
REMARK  Name = lig_assembled_48.pdb
REMARK  16 active torsions:
REMARK  status: ('A' for Active; 'I' for Inactive)
REMARK    1  A    between atoms: _2  and  _9
REMARK    2  A    between atoms: _4  and  _18
REMARK    3  A    between atoms: _6  and  _7
REMARK    4  A    between atoms: _6  and  _18
REMARK    5  A    between atoms: _14  and  _34
REMARK    6  A    between atoms: _16  and  _22
REMARK    7  A    between atoms: _17  and  _21
REMARK    8  A    between atoms: _21  and  _22
REMARK    9  A    between atoms: _24  and  _25
REMARK   10  A    between atoms: _26  and  _27
REMARK   11  A    between atoms: _28  and  _30
REMARK   12  A    between atoms: _30  and  _31
REMARK   13  A    between atoms: _30  and  _32
REMARK   14  A    between atoms: _32  and  _33
REMARK   15  A    between atoms: _32  and  _34
REMARK   16  A    between atoms: _35  and  _37
REMARK                            x       y       z     vdW  Elec       q    Type
REMARK                         _______ _______ _______ _____ _____    ______ ____
ROOT
ATOM      1  C   UNL     1      -4.678   9.515  33.228  0.00  0.00    +0.163 C 
ENDROOT
BRANCH   1   2
ATOM      2  O   UNL     1      -3.327  10.000  33.155  0.00  0.00    -0.388 OA
ATOM      3  H   UNL     1      -3.273  10.700  32.500  0.00  0.00    +0.210 HD
ENDBRANCH   1   2
BRANCH   1   4
ATOM      4  C   UNL     1      -4.822   8.246  32.394  0.00  0.00    +0.141 C 
BRANCH   4   7
ATOM      5  C   UNL     1      -4.402   8.419  29.966  0.00  0.00    +0.401 C 
ATOM      6  O   UNL     1      -5.594   8.548  29.673  0.00  0.00    -0.226 OA
ATOM      7  N   UNL     1      -3.953   8.266  31.212  0.00  0.00    -0.279 N 
ATOM      8  H   UNL     1      -2.958   8.158  31.350  0.00  0.00    +0.152 HD
BRANCH   5   9
ATOM      9  O   UNL     1      -3.426   8.427  28.921  0.00  0.00    -0.444 OA
BRANCH   9  10
ATOM     10  C   UNL     1      -2.617   9.601  29.031  0.00  0.00    +0.292 C 
BRANCH  10  12
ATOM     11  N   UNL     1      -1.709   9.547  26.733  0.00  0.00    -0.131 NA
ATOM     12  C   UNL     1      -2.416  10.204  27.700  0.00  0.00    +0.120 A 
ATOM     13  C   UNL     1      -2.865  11.404  27.194  0.00  0.00    +0.137 A 
ATOM     14  N   UNL     1      -2.482  11.379  25.886  0.00  0.00    -0.248 N 
ATOM     15  N   UNL     1      -1.721  10.291  25.638  0.00  0.00    -0.065 NA
BRANCH  14  16
ATOM     16  C   UNL     1      -2.807  12.274  24.781  0.00  0.00    +0.109 C 
ATOM     17  C   UNL     1      -2.997  11.488  23.470  0.00  0.00    +0.027 C 
ATOM     18  C   UNL     1      -4.299  10.692  23.478  0.00  0.00    +0.002 C 
ATOM     19  C   UNL     1      -5.499  11.615  23.654  0.00  0.00    +0.000 C 
ATOM     20  C   UNL     1      -5.378  12.501  24.891  0.00  0.00    +0.002 C 
ATOM     21  C   UNL     1      -4.019  13.201  25.004  0.00  0.00    +0.027 C 
ENDBRANCH  14  16
ENDBRANCH  10  12
ENDBRANCH   9  10
ENDBRANCH   5   9
ENDBRANCH   4   7
ENDBRANCH   1   4
BRANCH   1  22
ATOM     22  C   UNL     1      -5.672  10.576  32.725  0.00  0.00    +0.175 C 
BRANCH  22  23
ATOM     23  C   UNL     1      -4.960  11.777  32.085  0.00  0.00    +0.176 C 
ATOM     24  O   UNL     1      -4.509  12.652  33.155  0.00  0.00    -0.332 OA
ATOM     25  C   UNL     1      -3.711  13.807  32.734  0.00  0.00    +0.277 C 
ATOM     26  C   UNL     1      -4.473  14.633  31.669  0.00  0.00    +0.110 C 
ATOM     27  C   UNL     1      -4.999  13.740  30.526  0.00  0.00    +0.143 C 
ATOM     28  C   UNL     1      -5.813  12.568  31.076  0.00  0.00    +0.133 C 
BRANCH  28  29
ATOM     29  N   UNL     1      -6.236  11.677  29.984  0.00  0.00    -0.308 N 
ATOM     30  H   UNL     1      -5.519  11.163  29.490  0.00  0.00    +0.149 HD
ATOM     31  C   UNL     1      -7.504  11.502  29.603  0.00  0.00    +0.210 C 
ATOM     32  C   UNL     1      -8.570  12.318  30.358  0.00  0.00    +0.109 C 
ATOM     33  O   UNL     1      -7.830  10.737  28.694  0.00  0.00    -0.276 OA
ENDBRANCH  28  29
BRANCH  25  34
ATOM     34  C   UNL     1      -2.352  13.354  32.161  0.00  0.00    +0.414 C 
ATOM     35  O   UNL     1      -1.708  14.102  31.428  0.00  0.00    -0.240 OA
ATOM     36  O   UNL     1      -1.901  12.240  32.431  0.00  0.00    -0.240 OA
ENDBRANCH  25  34
BRANCH  27  37
ATOM     37  O   UNL     1      -5.820  14.513  29.649  0.00  0.00    -0.390 OA
ATOM     38  H   UNL     1      -6.745  14.338  29.839  0.00  0.00    +0.210 HD
ENDBRANCH  27  37
BRANCH  25  39
ATOM     39  O   UNL     1      -3.494  14.649  33.896  0.00  0.00    -0.343 OA
ATOM     40  C   UNL     1      -4.010  15.999  33.779  0.00  0.00    +0.198 C 
ENDBRANCH  25  39
ENDBRANCH  22  23
BRANCH  22  41
ATOM     41  O   UNL     1      -6.516  11.018  33.807  0.00  0.00    -0.387 OA
ATOM     42  H   UNL     1      -7.073  10.291  34.097  0.00  0.00    +0.210 HD
ENDBRANCH  22  41
ENDBRANCH   1  22
TORSDOF 14
