REMARK VINA RESULT:    -4.880      2.997      5.207
REMARK INTER + INTRA:         -10.940
REMARK INTER:                  -8.931
REMARK INTRA:                  -2.010
REMARK UNBOUND:                -2.494
REMARK  Name = lig_assembled_56.pdb
REMARK  16 active torsions:
REMARK  status: ('A' for Active; 'I' for Inactive)
REMARK    1  A    between atoms: _2  and  _10
REMARK    2  A    between atoms: _5  and  _18
REMARK    3  A    between atoms: _7  and  _8
REMARK    4  A    between atoms: _7  and  _18
REMARK    5  A    between atoms: _14  and  _34
REMARK    6  A    between atoms: _16  and  _22
REMARK    7  A    between atoms: _17  and  _21
REMARK    8  A    between atoms: _21  and  _22
REMARK    9  A    between atoms: _24  and  _25
REMARK   10  A    between atoms: _26  and  _27
REMARK   11  A    between atoms: _28  and  _30
REMARK   12  A    between atoms: _30  and  _31
REMARK   13  A    between atoms: _30  and  _32
REMARK   14  A    between atoms: _32  and  _33
REMARK   15  A    between atoms: _32  and  _34
REMARK   16  A    between atoms: _35  and  _37
REMARK                            x       y       z     vdW  Elec       q    Type
REMARK                         _______ _______ _______ _____ _____    ______ ____
ROOT
ATOM      1  C   UNL     1      -4.611   7.346  23.259  0.00  0.00    +0.163 C 
ENDROOT
BRANCH   1   2
ATOM      2  O   UNL     1      -3.398   7.188  22.505  0.00  0.00    -0.388 OA
ATOM      3  H   UNL     1      -3.613   6.982  21.592  0.00  0.00    +0.210 HD
ENDBRANCH   1   2
BRANCH   1   4
ATOM      4  C   UNL     1      -5.755   6.611  22.567  0.00  0.00    +0.141 C 
BRANCH   4   7
ATOM      5  C   UNL     1      -5.838   7.088  20.143  0.00  0.00    +0.401 C 
ATOM      6  O   UNL     1      -5.009   6.225  19.849  0.00  0.00    -0.226 OA
ATOM      7  N   UNL     1      -6.241   7.341  21.389  0.00  0.00    -0.279 N 
ATOM      8  H   UNL     1      -6.919   8.077  21.531  0.00  0.00    +0.152 HD
BRANCH   5   9
ATOM      9  O   UNL     1      -6.414   7.882  19.102  0.00  0.00    -0.444 OA
BRANCH   9  10
ATOM     10  C   UNL     1      -5.827   9.186  19.115  0.00  0.00    +0.292 C 
BRANCH  10  12
ATOM     11  N   UNL     1      -4.907  10.708  17.396  0.00  0.00    -0.131 NA
ATOM     12  C   UNL     1      -5.111   9.438  17.851  0.00  0.00    +0.121 A 
ATOM     13  C   UNL     1      -4.555   8.548  16.960  0.00  0.00    +0.143 A 
ATOM     14  N   UNL     1      -4.000   9.331  15.974  0.00  0.00    -0.220 N 
ATOM     15  N   UNL     1      -4.234  10.636  16.256  0.00  0.00    -0.060 NA
BRANCH  14  16
ATOM     16  C   UNL     1      -3.274   8.932  14.825  0.00  0.00    +0.070 A 
ATOM     17  C   UNL     1      -3.656   9.355  13.550  0.00  0.00    +0.047 A 
ATOM     18  C   UNL     1      -2.910   8.913  12.468  0.00  0.00    +0.113 A 
ATOM     19  N   UNL     1      -1.838   8.101  12.575  0.00  0.00    -0.263 NA
ATOM     20  C   UNL     1      -1.489   7.709  13.819  0.00  0.00    +0.113 A 
ATOM     21  C   UNL     1      -2.164   8.093  14.964  0.00  0.00    +0.047 A 
ENDBRANCH  14  16
ENDBRANCH  10  12
ENDBRANCH   9  10
ENDBRANCH   5   9
ENDBRANCH   4   7
ENDBRANCH   1   4
BRANCH   1  22
ATOM     22  C   UNL     1      -4.974   8.833  23.413  0.00  0.00    +0.175 C 
BRANCH  22  23
ATOM     23  C   UNL     1      -3.916   9.606  24.214  0.00  0.00    +0.176 C 
ATOM     24  O   UNL     1      -4.279   9.534  25.620  0.00  0.00    -0.332 OA
ATOM     25  C   UNL     1      -3.320  10.131  26.554  0.00  0.00    +0.277 C 
ATOM     26  C   UNL     1      -3.028  11.601  26.163  0.00  0.00    +0.110 C 
ATOM     27  C   UNL     1      -2.668  11.732  24.668  0.00  0.00    +0.143 C 
ATOM     28  C   UNL     1      -3.732  11.074  23.788  0.00  0.00    +0.133 C 
BRANCH  28  29
ATOM     29  N   UNL     1      -3.335  11.130  22.372  0.00  0.00    -0.308 N 
ATOM     30  H   UNL     1      -2.526  10.596  22.088  0.00  0.00    +0.149 HD
ATOM     31  C   UNL     1      -3.974  11.839  21.439  0.00  0.00    +0.210 C 
ATOM     32  C   UNL     1      -5.188  12.663  21.909  0.00  0.00    +0.109 C 
ATOM     33  O   UNL     1      -3.628  11.855  20.257  0.00  0.00    -0.276 OA
ENDBRANCH  28  29
BRANCH  25  34
ATOM     34  C   UNL     1      -2.001   9.331  26.570  0.00  0.00    +0.414 C 
ATOM     35  O   UNL     1      -2.018   8.105  26.462  0.00  0.00    -0.240 OA
ATOM     36  O   UNL     1      -0.921   9.910  26.691  0.00  0.00    -0.240 OA
ENDBRANCH  25  34
BRANCH  27  37
ATOM     37  O   UNL     1      -2.557  13.113  24.319  0.00  0.00    -0.390 OA
ATOM     38  H   UNL     1      -1.966  13.552  24.935  0.00  0.00    +0.210 HD
ENDBRANCH  27  37
BRANCH  25  39
ATOM     39  O   UNL     1      -3.914  10.119  27.877  0.00  0.00    -0.343 OA
ATOM     40  C   UNL     1      -4.660  11.313  28.225  0.00  0.00    +0.198 C 
ENDBRANCH  25  39
ENDBRANCH  22  23
BRANCH  22  41
ATOM     41  O   UNL     1      -6.266   8.967  24.038  0.00  0.00    -0.387 OA
ATOM     42  H   UNL     1      -6.868   8.313  23.673  0.00  0.00    +0.210 HD
ENDBRANCH  22  41
ENDBRANCH   1  22
TORSDOF 14
