REMARK VINA RESULT:    -4.330      2.176      3.150
REMARK INTER + INTRA:         -10.808
REMARK INTER:                  -7.242
REMARK INTRA:                  -3.567
REMARK UNBOUND:                -2.934
REMARK  Name = lig_assembled_72.pdb
REMARK  20 active torsions:
REMARK  status: ('A' for Active; 'I' for Inactive)
REMARK    1  A    between atoms: _2  and  _9
REMARK    2  A    between atoms: _4  and  _17
REMARK    3  A    between atoms: _5  and  _9
REMARK    4  A    between atoms: _5  and  _12
REMARK    5  A    between atoms: _6  and  _7
REMARK    6  A    between atoms: _6  and  _17
REMARK    7  A    between atoms: _9  and  _10
REMARK    8  A    between atoms: _9  and  _11
REMARK    9  A    between atoms: _13  and  _33
REMARK   10  A    between atoms: _15  and  _21
REMARK   11  A    between atoms: _16  and  _20
REMARK   12  A    between atoms: _20  and  _21
REMARK   13  A    between atoms: _23  and  _24
REMARK   14  A    between atoms: _25  and  _26
REMARK   15  A    between atoms: _27  and  _29
REMARK   16  A    between atoms: _29  and  _30
REMARK   17  A    between atoms: _29  and  _31
REMARK   18  A    between atoms: _31  and  _32
REMARK   19  A    between atoms: _31  and  _33
REMARK   20  A    between atoms: _34  and  _36
REMARK                            x       y       z     vdW  Elec       q    Type
REMARK                         _______ _______ _______ _____ _____    ______ ____
ROOT
ATOM      1  C   UNL     1      -5.876  12.743  26.171  0.00  0.00    +0.163 C 
ENDROOT
BRANCH   1   2
ATOM      2  O   UNL     1      -4.785  12.969  25.262  0.00  0.00    -0.388 OA
ATOM      3  H   UNL     1      -4.906  13.813  24.820  0.00  0.00    +0.210 HD
ENDBRANCH   1   2
BRANCH   1   4
ATOM      4  C   UNL     1      -5.384  12.730  27.628  0.00  0.00    +0.175 C 
BRANCH   4   5
ATOM      5  C   UNL     1      -4.258  11.709  27.850  0.00  0.00    +0.176 C 
ATOM      6  O   UNL     1      -4.462  10.611  26.919  0.00  0.00    -0.332 OA
ATOM      7  C   UNL     1      -3.416   9.583  26.913  0.00  0.00    +0.277 C 
ATOM      8  C   UNL     1      -3.197   9.026  28.341  0.00  0.00    +0.110 C 
ATOM      9  C   UNL     1      -3.007  10.159  29.372  0.00  0.00    +0.143 C 
ATOM     10  C   UNL     1      -4.149  11.172  29.289  0.00  0.00    +0.133 C 
BRANCH  10  11
ATOM     11  N   UNL     1      -3.913  12.291  30.215  0.00  0.00    -0.308 N 
ATOM     12  H   UNL     1      -3.189  12.955  29.977  0.00  0.00    +0.149 HD
ATOM     13  C   UNL     1      -4.591  12.487  31.348  0.00  0.00    +0.210 C 
ATOM     14  C   UNL     1      -5.669  11.443  31.696  0.00  0.00    +0.109 C 
ATOM     15  O   UNL     1      -4.381  13.442  32.097  0.00  0.00    -0.276 OA
ENDBRANCH  10  11
BRANCH   7  16
ATOM     16  C   UNL     1      -2.089  10.156  26.374  0.00  0.00    +0.414 C 
ATOM     17  O   UNL     1      -1.016   9.789  26.851  0.00  0.00    -0.240 OA
ATOM     18  O   UNL     1      -2.092  10.985  25.463  0.00  0.00    -0.240 OA
ENDBRANCH   7  16
BRANCH   9  19
ATOM     19  O   UNL     1      -2.961   9.609  30.689  0.00  0.00    -0.390 OA
ATOM     20  H   UNL     1      -3.837   9.638  31.080  0.00  0.00    +0.210 HD
ENDBRANCH   9  19
BRANCH   7  21
ATOM     21  O   UNL     1      -3.861   8.496  26.061  0.00  0.00    -0.343 OA
ATOM     22  C   UNL     1      -3.261   7.208  26.349  0.00  0.00    +0.198 C 
ENDBRANCH   7  21
ENDBRANCH   4   5
BRANCH   4  23
ATOM     23  O   UNL     1      -6.483  12.460  28.521  0.00  0.00    -0.387 OA
ATOM     24  H   UNL     1      -6.622  11.512  28.579  0.00  0.00    +0.210 HD
ENDBRANCH   4  23
ENDBRANCH   1   4
BRANCH   1  25
ATOM     25  C   UNL     1      -6.932  13.829  25.999  0.00  0.00    +0.141 C 
BRANCH  25  28
ATOM     26  C   UNL     1      -7.389  15.418  24.162  0.00  0.00    +0.401 C 
ATOM     27  O   UNL     1      -8.599  15.183  24.134  0.00  0.00    -0.226 OA
ATOM     28  N   UNL     1      -6.534  14.826  24.997  0.00  0.00    -0.279 N 
ATOM     29  H   UNL     1      -5.557  15.078  24.937  0.00  0.00    +0.152 HD
BRANCH  26  30
ATOM     30  O   UNL     1      -6.846  16.376  23.250  0.00  0.00    -0.444 OA
BRANCH  30  31
ATOM     31  C   UNL     1      -6.768  15.799  21.943  0.00  0.00    +0.292 C 
BRANCH  31  33
ATOM     32  N   UNL     1      -4.599  14.732  22.466  0.00  0.00    -0.131 NA
ATOM     33  C   UNL     1      -5.861  14.637  21.949  0.00  0.00    +0.120 A 
ATOM     34  C   UNL     1      -6.062  13.353  21.490  0.00  0.00    +0.137 A 
ATOM     35  N   UNL     1      -4.884  12.711  21.757  0.00  0.00    -0.244 N 
ATOM     36  N   UNL     1      -4.010  13.553  22.344  0.00  0.00    -0.065 NA
BRANCH  35  37
ATOM     37  C   UNL     1      -4.529  11.311  21.486  0.00  0.00    +0.083 C 
ATOM     38  C   UNL     1      -3.000  11.148  21.579  0.00  0.00    +0.038 C 
ATOM     39  C   UNL     1      -5.001  10.922  20.071  0.00  0.00    +0.038 C 
BRANCH  37  40
ATOM     40  C   UNL     1      -5.173  10.346  22.520  0.00  0.00    +0.185 C 
BRANCH  40  41
ATOM     41  O   UNL     1      -4.541  10.407  23.797  0.00  0.00    -0.393 OA
ATOM     42  H   UNL     1      -5.236  10.182  24.453  0.00  0.00    +0.209 HD
ENDBRANCH  40  41
ENDBRANCH  37  40
ENDBRANCH  35  37
ENDBRANCH  31  33
ENDBRANCH  30  31
ENDBRANCH  26  30
ENDBRANCH  25  28
ENDBRANCH   1  25
TORSDOF 16
