REMARK VINA RESULT:    -5.009      2.628      7.779
REMARK INTER + INTRA:         -11.177
REMARK INTER:                  -8.482
REMARK INTRA:                  -2.695
REMARK UNBOUND:                -2.508
REMARK  Name = lig_assembled_48.pdb
REMARK  16 active torsions:
REMARK  status: ('A' for Active; 'I' for Inactive)
REMARK    1  A    between atoms: _2  and  _9
REMARK    2  A    between atoms: _4  and  _18
REMARK    3  A    between atoms: _6  and  _7
REMARK    4  A    between atoms: _6  and  _18
REMARK    5  A    between atoms: _14  and  _34
REMARK    6  A    between atoms: _16  and  _22
REMARK    7  A    between atoms: _17  and  _21
REMARK    8  A    between atoms: _21  and  _22
REMARK    9  A    between atoms: _24  and  _25
REMARK   10  A    between atoms: _26  and  _27
REMARK   11  A    between atoms: _28  and  _30
REMARK   12  A    between atoms: _30  and  _31
REMARK   13  A    between atoms: _30  and  _32
REMARK   14  A    between atoms: _32  and  _33
REMARK   15  A    between atoms: _32  and  _34
REMARK   16  A    between atoms: _35  and  _37
REMARK                            x       y       z     vdW  Elec       q    Type
REMARK                         _______ _______ _______ _____ _____    ______ ____
ROOT
ATOM      1  C   UNL     1      -2.314   9.705  27.034  0.00  0.00    +0.163 C 
ENDROOT
BRANCH   1   2
ATOM      2  O   UNL     1      -1.145   9.943  26.233  0.00  0.00    -0.388 OA
ATOM      3  H   UNL     1      -0.480   9.280  26.431  0.00  0.00    +0.210 HD
ENDBRANCH   1   2
BRANCH   1   4
ATOM      4  C   UNL     1      -1.910   9.131  28.388  0.00  0.00    +0.141 C 
BRANCH   4   7
ATOM      5  C   UNL     1      -3.377   9.360  30.364  0.00  0.00    +0.401 C 
ATOM      6  O   UNL     1      -3.784   8.197  30.313  0.00  0.00    -0.226 OA
ATOM      7  N   UNL     1      -2.505   9.883  29.501  0.00  0.00    -0.279 N 
ATOM      8  H   UNL     1      -2.239  10.850  29.619  0.00  0.00    +0.152 HD
BRANCH   5   9
ATOM      9  O   UNL     1      -3.859  10.220  31.400  0.00  0.00    -0.444 OA
BRANCH   9  10
ATOM     10  C   UNL     1      -2.764  10.643  32.217  0.00  0.00    +0.292 C 
BRANCH  10  12
ATOM     11  N   UNL     1      -1.707  12.870  32.048  0.00  0.00    -0.131 NA
ATOM     12  C   UNL     1      -2.791  12.108  32.381  0.00  0.00    +0.120 A 
ATOM     13  C   UNL     1      -3.801  12.932  32.826  0.00  0.00    +0.137 A 
ATOM     14  N   UNL     1      -3.307  14.191  32.651  0.00  0.00    -0.248 N 
ATOM     15  N   UNL     1      -2.018  14.141  32.253  0.00  0.00    -0.065 NA
BRANCH  14  16
ATOM     16  C   UNL     1      -3.955  15.492  32.771  0.00  0.00    +0.109 C 
ATOM     17  C   UNL     1      -3.974  16.227  31.417  0.00  0.00    +0.027 C 
ATOM     18  C   UNL     1      -4.969  15.591  30.449  0.00  0.00    +0.002 C 
ATOM     19  C   UNL     1      -6.380  15.623  31.023  0.00  0.00    +0.000 C 
ATOM     20  C   UNL     1      -6.462  14.985  32.408  0.00  0.00    +0.002 C 
ATOM     21  C   UNL     1      -5.376  15.482  33.369  0.00  0.00    +0.027 C 
ENDBRANCH  14  16
ENDBRANCH  10  12
ENDBRANCH   9  10
ENDBRANCH   5   9
ENDBRANCH   4   7
ENDBRANCH   1   4
BRANCH   1  22
ATOM     22  C   UNL     1      -3.275   8.732  26.330  0.00  0.00    +0.175 C 
BRANCH  22  23
ATOM     23  C   UNL     1      -4.120   9.431  25.254  0.00  0.00    +0.176 C 
ATOM     24  O   UNL     1      -3.248   9.739  24.132  0.00  0.00    -0.332 OA
ATOM     25  C   UNL     1      -3.907  10.319  22.958  0.00  0.00    +0.277 C 
ATOM     26  C   UNL     1      -4.712  11.580  23.357  0.00  0.00    +0.110 C 
ATOM     27  C   UNL     1      -5.631  11.310  24.567  0.00  0.00    +0.143 C 
ATOM     28  C   UNL     1      -4.843  10.705  25.730  0.00  0.00    +0.133 C 
BRANCH  28  29
ATOM     29  N   UNL     1      -5.743  10.372  26.845  0.00  0.00    -0.308 N 
ATOM     30  H   UNL     1      -6.392   9.609  26.715  0.00  0.00    +0.149 HD
ATOM     31  C   UNL     1      -5.759  11.012  28.017  0.00  0.00    +0.210 C 
ATOM     32  C   UNL     1      -4.775  12.187  28.174  0.00  0.00    +0.109 C 
ATOM     33  O   UNL     1      -6.514  10.701  28.938  0.00  0.00    -0.276 OA
ENDBRANCH  28  29
BRANCH  25  34
ATOM     34  C   UNL     1      -4.851   9.292  22.298  0.00  0.00    +0.414 C 
ATOM     35  O   UNL     1      -5.940   9.650  21.848  0.00  0.00    -0.240 OA
ATOM     36  O   UNL     1      -4.525   8.108  22.215  0.00  0.00    -0.240 OA
ENDBRANCH  25  34
BRANCH  27  37
ATOM     37  O   UNL     1      -6.236  12.531  24.994  0.00  0.00    -0.390 OA
ATOM     38  H   UNL     1      -6.421  12.485  25.935  0.00  0.00    +0.210 HD
ENDBRANCH  27  37
BRANCH  25  39
ATOM     39  O   UNL     1      -2.878  10.713  22.014  0.00  0.00    -0.343 OA
ATOM     40  C   UNL     1      -3.152  11.936  21.284  0.00  0.00    +0.198 C 
ENDBRANCH  25  39
ENDBRANCH  22  23
BRANCH  22  41
ATOM     41  O   UNL     1      -4.132   8.093  27.297  0.00  0.00    -0.387 OA
ATOM     42  H   UNL     1      -5.050   8.284  27.087  0.00  0.00    +0.210 HD
ENDBRANCH  22  41
ENDBRANCH   1  22
TORSDOF 14
