REMARK VINA RESULT:    -5.451      3.304      6.879
REMARK INTER + INTRA:         -14.578
REMARK INTER:                 -10.361
REMARK INTRA:                  -4.217
REMARK UNBOUND:                -3.392
REMARK  Name = lig_assembled_47.pdb
REMARK  22 active torsions:
REMARK  status: ('A' for Active; 'I' for Inactive)
REMARK    1  A    between atoms: _2  and  _9
REMARK    2  A    between atoms: _4  and  _30
REMARK    3  A    between atoms: _6  and  _7
REMARK    4  A    between atoms: _6  and  _30
REMARK    5  A    between atoms: _9  and  _10
REMARK    6  A    between atoms: _10  and  _11
REMARK    7  A    between atoms: _10  and  _12
REMARK    8  A    between atoms: _11  and  _24
REMARK    9  A    between atoms: _12  and  _13
REMARK   10  A    between atoms: _12  and  _19
REMARK   11  A    between atoms: _26  and  _46
REMARK   12  A    between atoms: _28  and  _34
REMARK   13  A    between atoms: _29  and  _33
REMARK   14  A    between atoms: _33  and  _34
REMARK   15  A    between atoms: _36  and  _37
REMARK   16  A    between atoms: _38  and  _39
REMARK   17  A    between atoms: _40  and  _42
REMARK   18  A    between atoms: _42  and  _43
REMARK   19  A    between atoms: _42  and  _44
REMARK   20  A    between atoms: _44  and  _45
REMARK   21  A    between atoms: _44  and  _46
REMARK   22  A    between atoms: _47  and  _49
REMARK                            x       y       z     vdW  Elec       q    Type
REMARK                         _______ _______ _______ _____ _____    ______ ____
ROOT
ATOM      1  C   UNL     1      -3.121   8.622  28.876  0.00  0.00    +0.401 C 
ATOM      2  O   UNL     1      -2.214   7.810  29.071  0.00  0.00    -0.226 OA
ATOM      3  N   UNL     1      -3.459   9.583  29.737  0.00  0.00    -0.279 N 
ATOM      4  H   UNL     1      -4.212  10.207  29.484  0.00  0.00    +0.152 HD
ENDROOT
BRANCH   3   5
ATOM      5  C   UNL     1      -2.800   9.783  31.033  0.00  0.00    +0.141 C 
BRANCH   5   6
ATOM      6  C   UNL     1      -3.324  11.022  31.752  0.00  0.00    +0.163 C 
BRANCH   6   7
ATOM      7  O   UNL     1      -2.456  12.139  31.503  0.00  0.00    -0.388 OA
ATOM      8  H   UNL     1      -2.099  12.076  30.614  0.00  0.00    +0.210 HD
ENDBRANCH   6   7
BRANCH   6   9
ATOM      9  C   UNL     1      -4.757  11.322  31.280  0.00  0.00    +0.175 C 
BRANCH   9  10
ATOM     10  C   UNL     1      -4.938  12.795  30.884  0.00  0.00    +0.176 C 
ATOM     11  O   UNL     1      -5.203  13.554  32.096  0.00  0.00    -0.332 OA
ATOM     12  C   UNL     1      -5.300  15.007  31.925  0.00  0.00    +0.277 C 
ATOM     13  C   UNL     1      -6.356  15.356  30.847  0.00  0.00    +0.110 C 
ATOM     14  C   UNL     1      -6.134  14.549  29.550  0.00  0.00    +0.143 C 
ATOM     15  C   UNL     1      -6.045  13.051  29.844  0.00  0.00    +0.133 C 
BRANCH  15  16
ATOM     16  N   UNL     1      -5.747  12.301  28.614  0.00  0.00    -0.308 N 
ATOM     17  H   UNL     1      -4.903  12.536  28.111  0.00  0.00    +0.149 HD
ATOM     18  C   UNL     1      -6.519  11.331  28.119  0.00  0.00    +0.210 C 
ATOM     19  C   UNL     1      -7.812  11.014  28.894  0.00  0.00    +0.109 C 
ATOM     20  O   UNL     1      -6.237  10.709  27.094  0.00  0.00    -0.276 OA
ENDBRANCH  15  16
BRANCH  12  21
ATOM     21  C   UNL     1      -3.935  15.603  31.522  0.00  0.00    +0.414 C 
ATOM     22  O   UNL     1      -3.877  16.530  30.715  0.00  0.00    -0.240 OA
ATOM     23  O   UNL     1      -2.893  15.156  32.003  0.00  0.00    -0.240 OA
ENDBRANCH  12  21
BRANCH  12  24
ATOM     24  O   UNL     1      -5.729  15.580  33.187  0.00  0.00    -0.343 OA
ATOM     25  C   UNL     1      -6.913  16.413  33.111  0.00  0.00    +0.198 C 
ENDBRANCH  12  24
BRANCH  14  26
ATOM     26  O   UNL     1      -7.211  14.788  28.644  0.00  0.00    -0.390 OA
ATOM     27  H   UNL     1      -7.933  14.186  28.839  0.00  0.00    +0.210 HD
ENDBRANCH  14  26
ENDBRANCH   9  10
BRANCH   9  28
ATOM     28  O   UNL     1      -5.704  10.964  32.306  0.00  0.00    -0.387 OA
ATOM     29  H   UNL     1      -5.267  10.969  33.161  0.00  0.00    +0.210 HD
ENDBRANCH   9  28
ENDBRANCH   6   9
ENDBRANCH   5   6
ENDBRANCH   3   5
BRANCH   1  30
ATOM     30  O   UNL     1      -3.867   8.552  27.658  0.00  0.00    -0.444 OA
BRANCH  30  31
ATOM     31  C   UNL     1      -2.972   8.631  26.545  0.00  0.00    +0.292 C 
BRANCH  31  33
ATOM     32  N   UNL     1      -1.883  10.855  26.358  0.00  0.00    -0.131 NA
ATOM     33  C   UNL     1      -2.905  10.008  26.015  0.00  0.00    +0.120 A 
ATOM     34  C   UNL     1      -3.775  10.675  25.180  0.00  0.00    +0.137 A 
ATOM     35  N   UNL     1      -3.254  11.932  25.093  0.00  0.00    -0.251 N 
ATOM     36  N   UNL     1      -2.106  12.031  25.785  0.00  0.00    -0.065 NA
BRANCH  35  37
ATOM     37  C   UNL     1      -3.862  13.117  24.505  0.00  0.00    +0.160 C 
BRANCH  37  38
ATOM     38  C   UNL     1      -5.296  12.901  24.015  0.00  0.00    +0.131 C 
BRANCH  38  39
ATOM     39  C   UNL     1      -6.233  13.360  25.124  0.00  0.00    +0.311 C 
ATOM     40  O   UNL     1      -5.896  14.152  25.991  0.00  0.00    -0.251 OA
BRANCH  39  41
ATOM     41  O   UNL     1      -7.512  12.937  25.054  0.00  0.00    -0.480 OA
ATOM     42  H   UNL     1      -8.209  13.585  24.861  0.00  0.00    +0.295 HD
ENDBRANCH  39  41
ENDBRANCH  38  39
BRANCH  38  43
ATOM     43  C   UNL     1      -5.629  13.585  22.651  0.00  0.00    +0.064 C 
BRANCH  43  44
ATOM     44  C   UNL     1      -4.989  14.956  22.421  0.00  0.00    -0.039 A 
ATOM     45  C   UNL     1      -3.642  15.039  22.019  0.00  0.00    +0.004 A 
ATOM     46  C   UNL     1      -3.027  16.277  21.800  0.00  0.00    +0.000 A 
ATOM     47  C   UNL     1      -3.740  17.455  21.997  0.00  0.00    +0.000 A 
ATOM     48  C   UNL     1      -5.066  17.394  22.413  0.00  0.00    +0.000 A 
ATOM     49  C   UNL     1      -5.689  16.156  22.614  0.00  0.00    +0.004 A 
ENDBRANCH  43  44
BRANCH  43  50
ATOM     50  C   UNL     1      -5.382  12.608  21.494  0.00  0.00    -0.039 A 
ATOM     51  C   UNL     1      -4.378  11.632  21.590  0.00  0.00    +0.004 A 
ATOM     52  C   UNL     1      -4.033  10.855  20.479  0.00  0.00    +0.000 A 
ATOM     53  C   UNL     1      -4.703  11.024  19.269  0.00  0.00    +0.000 A 
ATOM     54  C   UNL     1      -5.725  11.959  19.168  0.00  0.00    +0.000 A 
ATOM     55  C   UNL     1      -6.061  12.745  20.270  0.00  0.00    +0.004 A 
ENDBRANCH  43  50
ENDBRANCH  38  43
ENDBRANCH  37  38
ENDBRANCH  35  37
ENDBRANCH  31  33
ENDBRANCH  30  31
ENDBRANCH   1  30
TORSDOF 20
