REMARK VINA RESULT:    -5.787      7.532     11.820
REMARK INTER + INTRA:         -14.018
REMARK INTER:                  -9.668
REMARK INTRA:                  -4.349
REMARK UNBOUND:                -3.157
REMARK  Name = lig_assembled_64.pdb
REMARK  19 active torsions:
REMARK  status: ('A' for Active; 'I' for Inactive)
REMARK    1  A    between atoms: _2  and  _10
REMARK    2  A    between atoms: _5  and  _27
REMARK    3  A    between atoms: _7  and  _8
REMARK    4  A    between atoms: _7  and  _27
REMARK    5  A    between atoms: _12  and  _13
REMARK    6  A    between atoms: _13  and  _21
REMARK    7  A    between atoms: _14  and  _15
REMARK    8  A    between atoms: _23  and  _43
REMARK    9  A    between atoms: _25  and  _31
REMARK   10  A    between atoms: _26  and  _30
REMARK   11  A    between atoms: _30  and  _31
REMARK   12  A    between atoms: _33  and  _34
REMARK   13  A    between atoms: _35  and  _36
REMARK   14  A    between atoms: _37  and  _39
REMARK   15  A    between atoms: _39  and  _40
REMARK   16  A    between atoms: _39  and  _41
REMARK   17  A    between atoms: _41  and  _42
REMARK   18  A    between atoms: _41  and  _43
REMARK   19  A    between atoms: _44  and  _46
REMARK                            x       y       z     vdW  Elec       q    Type
REMARK                         _______ _______ _______ _____ _____    ______ ____
ROOT
ATOM      1  C   UNL     1      -4.588  13.226  23.229  0.00  0.00    +0.401 C 
ATOM      2  O   UNL     1      -3.697  13.709  22.526  0.00  0.00    -0.226 OA
ATOM      3  N   UNL     1      -5.224  12.088  22.948  0.00  0.00    -0.279 N 
ATOM      4  H   UNL     1      -5.934  11.767  23.591  0.00  0.00    +0.152 HD
ENDROOT
BRANCH   3   5
ATOM      5  C   UNL     1      -4.950  11.275  21.757  0.00  0.00    +0.141 C 
BRANCH   5   6
ATOM      6  C   UNL     1      -3.949  10.161  22.046  0.00  0.00    +0.163 C 
BRANCH   6   7
ATOM      7  O   UNL     1      -2.827  10.686  22.774  0.00  0.00    -0.388 OA
ATOM      8  H   UNL     1      -2.224   9.971  22.992  0.00  0.00    +0.210 HD
ENDBRANCH   6   7
BRANCH   6   9
ATOM      9  C   UNL     1      -4.643   9.039  22.838  0.00  0.00    +0.175 C 
BRANCH   9  10
ATOM     10  C   UNL     1      -4.391   9.158  24.348  0.00  0.00    +0.176 C 
ATOM     11  O   UNL     1      -3.261   8.305  24.681  0.00  0.00    -0.332 OA
ATOM     12  C   UNL     1      -2.806   8.371  26.073  0.00  0.00    +0.277 C 
ATOM     13  C   UNL     1      -3.980   8.085  27.041  0.00  0.00    +0.110 C 
ATOM     14  C   UNL     1      -5.216   8.946  26.706  0.00  0.00    +0.143 C 
ATOM     15  C   UNL     1      -5.601   8.805  25.233  0.00  0.00    +0.133 C 
BRANCH  15  16
ATOM     16  N   UNL     1      -6.725   9.696  24.906  0.00  0.00    -0.308 N 
ATOM     17  H   UNL     1      -6.587  10.690  25.019  0.00  0.00    +0.149 HD
ATOM     18  C   UNL     1      -7.916   9.276  24.470  0.00  0.00    +0.210 C 
ATOM     19  C   UNL     1      -8.103   7.753  24.334  0.00  0.00    +0.109 C 
ATOM     20  O   UNL     1      -8.835  10.047  24.190  0.00  0.00    -0.276 OA
ENDBRANCH  15  16
BRANCH  12  21
ATOM     21  C   UNL     1      -2.205   9.756  26.387  0.00  0.00    +0.414 C 
ATOM     22  O   UNL     1      -1.949  10.542  25.475  0.00  0.00    -0.240 OA
ATOM     23  O   UNL     1      -1.975  10.088  27.550  0.00  0.00    -0.240 OA
ENDBRANCH  12  21
BRANCH  12  24
ATOM     24  O   UNL     1      -1.796   7.346  26.264  0.00  0.00    -0.343 OA
ATOM     25  C   UNL     1      -2.098   6.374  27.297  0.00  0.00    +0.198 C 
ENDBRANCH  12  24
BRANCH  14  26
ATOM     26  O   UNL     1      -6.318   8.545  27.521  0.00  0.00    -0.390 OA
ATOM     27  H   UNL     1      -6.153   7.667  27.874  0.00  0.00    +0.210 HD
ENDBRANCH  14  26
ENDBRANCH   9  10
BRANCH   9  28
ATOM     28  O   UNL     1      -4.206   7.751  22.361  0.00  0.00    -0.387 OA
ATOM     29  H   UNL     1      -4.201   7.125  23.088  0.00  0.00    +0.210 HD
ENDBRANCH   9  28
ENDBRANCH   6   9
ENDBRANCH   5   6
ENDBRANCH   3   5
BRANCH   1  30
ATOM     30  O   UNL     1      -4.975  13.908  24.424  0.00  0.00    -0.444 OA
BRANCH  30  31
ATOM     31  C   UNL     1      -6.207  13.363  24.906  0.00  0.00    +0.292 C 
BRANCH  31  33
ATOM     32  N   UNL     1      -7.047  12.164  26.909  0.00  0.00    -0.131 NA
ATOM     33  C   UNL     1      -6.028  12.795  26.256  0.00  0.00    +0.121 A 
ATOM     34  C   UNL     1      -4.909  12.785  27.056  0.00  0.00    +0.143 A 
ATOM     35  N   UNL     1      -5.298  12.137  28.204  0.00  0.00    -0.220 N 
ATOM     36  N   UNL     1      -6.595  11.764  28.092  0.00  0.00    -0.060 NA
BRANCH  35  37
ATOM     37  C   UNL     1      -4.530  11.857  29.360  0.00  0.00    +0.071 A 
ATOM     38  C   UNL     1      -3.904  12.888  30.053  0.00  0.00    +0.063 A 
ATOM     39  CA  UNL     1      -3.169  12.549  31.172  0.00  0.00    +0.150 A 
ATOM     40  N   UNL     1      -3.007  11.279  31.643  0.00  0.00    -0.240 NA
ATOM     41  C   UNL     1      -3.612  10.275  30.952  0.00  0.00    +0.074 A 
ATOM     42  C   UNL     1      -4.387  10.538  29.818  0.00  0.00    +0.056 A 
BRANCH  41  43
ATOM     43  C   UNL     1      -3.369   8.906  31.467  0.00  0.00    +0.000 A 
ATOM     44  C   UNL     1      -3.681   8.538  32.789  0.00  0.00    +0.010 A 
ATOM     45  C   UNL     1      -3.482   7.232  33.253  0.00  0.00    +0.001 A 
ATOM     46  C   UNL     1      -2.965   6.259  32.404  0.00  0.00    +0.000 A 
ATOM     47  C   UNL     1      -2.640   6.595  31.093  0.00  0.00    +0.001 A 
ATOM     48  C   UNL     1      -2.839   7.901  30.633  0.00  0.00    +0.010 A 
ENDBRANCH  41  43
BRANCH  39  49
ATOM     49  C   UNL     1      -2.479  13.621  31.945  0.00  0.00    +0.355 C 
ATOM     50  OXT UNL     1      -2.953  14.187  32.914  0.00  0.00    -0.243 OA
BRANCH  49  51
ATOM     51  O   UNL     1      -1.260  13.880  31.422  0.00  0.00    -0.476 OA
ATOM     52  H   UNL     1      -1.203  13.475  30.525  0.00  0.00    +0.295 HD
ENDBRANCH  49  51
ENDBRANCH  39  49
ENDBRANCH  35  37
ENDBRANCH  31  33
ENDBRANCH  30  31
ENDBRANCH   1  30
TORSDOF 17
