REMARK VINA RESULT:    -4.973      7.206     12.505
REMARK INTER + INTRA:         -11.102
REMARK INTER:                  -7.975
REMARK INTRA:                  -3.127
REMARK UNBOUND:                -2.494
REMARK  Name = lig_assembled_56.pdb
REMARK  16 active torsions:
REMARK  status: ('A' for Active; 'I' for Inactive)
REMARK    1  A    between atoms: _2  and  _10
REMARK    2  A    between atoms: _5  and  _18
REMARK    3  A    between atoms: _7  and  _8
REMARK    4  A    between atoms: _7  and  _18
REMARK    5  A    between atoms: _14  and  _34
REMARK    6  A    between atoms: _16  and  _22
REMARK    7  A    between atoms: _17  and  _21
REMARK    8  A    between atoms: _21  and  _22
REMARK    9  A    between atoms: _24  and  _25
REMARK   10  A    between atoms: _26  and  _27
REMARK   11  A    between atoms: _28  and  _30
REMARK   12  A    between atoms: _30  and  _31
REMARK   13  A    between atoms: _30  and  _32
REMARK   14  A    between atoms: _32  and  _33
REMARK   15  A    between atoms: _32  and  _34
REMARK   16  A    between atoms: _35  and  _37
REMARK                            x       y       z     vdW  Elec       q    Type
REMARK                         _______ _______ _______ _____ _____    ______ ____
ROOT
ATOM      1  C   UNL     1      -1.878   8.546  13.697  0.00  0.00    +0.163 C 
ENDROOT
BRANCH   1   2
ATOM      2  O   UNL     1      -1.999   8.238  12.299  0.00  0.00    -0.388 OA
ATOM      3  H   UNL     1      -1.898   7.291  12.170  0.00  0.00    +0.210 HD
ENDBRANCH   1   2
BRANCH   1   4
ATOM      4  C   UNL     1      -1.928   7.264  14.521  0.00  0.00    +0.141 C 
BRANCH   4   7
ATOM      5  C   UNL     1      -3.181   6.644  16.558  0.00  0.00    +0.401 C 
ATOM      6  O   UNL     1      -2.205   6.141  17.119  0.00  0.00    -0.226 OA
ATOM      7  N   UNL     1      -3.143   7.186  15.340  0.00  0.00    -0.279 N 
ATOM      8  H   UNL     1      -3.999   7.566  14.961  0.00  0.00    +0.152 HD
BRANCH   5   9
ATOM      9  O   UNL     1      -4.441   6.653  17.233  0.00  0.00    -0.444 OA
BRANCH   9  10
ATOM     10  C   UNL     1      -5.282   7.659  16.661  0.00  0.00    +0.292 C 
BRANCH  10  12
ATOM     11  N   UNL     1      -6.848   8.884  18.134  0.00  0.00    -0.131 NA
ATOM     12  C   UNL     1      -5.582   8.704  17.658  0.00  0.00    +0.121 A 
ATOM     13  C   UNL     1      -4.743   9.617  18.256  0.00  0.00    +0.143 A 
ATOM     14  N   UNL     1      -5.549  10.330  19.115  0.00  0.00    -0.220 N 
ATOM     15  N   UNL     1      -6.821   9.874  19.016  0.00  0.00    -0.060 NA
BRANCH  14  16
ATOM     16  C   UNL     1      -5.195  11.375  20.003  0.00  0.00    +0.070 A 
ATOM     17  C   UNL     1      -3.875  11.542  20.428  0.00  0.00    +0.047 A 
ATOM     18  C   UNL     1      -3.602  12.576  21.310  0.00  0.00    +0.113 A 
ATOM     19  N   UNL     1      -4.535  13.429  21.781  0.00  0.00    -0.263 NA
ATOM     20  C   UNL     1      -5.802  13.248  21.352  0.00  0.00    +0.113 A 
ATOM     21  C   UNL     1      -6.180  12.248  20.473  0.00  0.00    +0.047 A 
ENDBRANCH  14  16
ENDBRANCH  10  12
ENDBRANCH   9  10
ENDBRANCH   5   9
ENDBRANCH   4   7
ENDBRANCH   1   4
BRANCH   1  22
ATOM     22  C   UNL     1      -3.004   9.492  14.150  0.00  0.00    +0.175 C 
BRANCH  22  23
ATOM     23  C   UNL     1      -3.325  10.558  13.092  0.00  0.00    +0.176 C 
ATOM     24  O   UNL     1      -2.065  11.082  12.589  0.00  0.00    -0.332 OA
ATOM     25  C   UNL     1      -2.174  12.043  11.487  0.00  0.00    +0.277 C 
ATOM     26  C   UNL     1      -3.108  13.213  11.879  0.00  0.00    +0.110 C 
ATOM     27  C   UNL     1      -4.449  12.705  12.450  0.00  0.00    +0.143 C 
ATOM     28  C   UNL     1      -4.219  11.710  13.588  0.00  0.00    +0.133 C 
BRANCH  28  29
ATOM     29  N   UNL     1      -5.501  11.167  14.065  0.00  0.00    -0.308 N 
ATOM     30  H   UNL     1      -5.997  10.529  13.458  0.00  0.00    +0.149 HD
ATOM     31  C   UNL     1      -6.050  11.461  15.246  0.00  0.00    +0.210 C 
ATOM     32  C   UNL     1      -5.281  12.456  16.135  0.00  0.00    +0.109 C 
ATOM     33  O   UNL     1      -7.118  10.980  15.625  0.00  0.00    -0.276 OA
ENDBRANCH  28  29
BRANCH  25  34
ATOM     34  C   UNL     1      -2.712  11.357  10.214  0.00  0.00    +0.414 C 
ATOM     35  O   UNL     1      -2.611  10.139  10.076  0.00  0.00    -0.240 OA
ATOM     36  O   UNL     1      -3.248  12.021   9.326  0.00  0.00    -0.240 OA
ENDBRANCH  25  34
BRANCH  27  37
ATOM     37  O   UNL     1      -5.215  13.807  12.937  0.00  0.00    -0.390 OA
ATOM     38  H   UNL     1      -4.897  14.620  12.536  0.00  0.00    +0.210 HD
ENDBRANCH  27  37
BRANCH  25  39
ATOM     39  O   UNL     1      -0.851  12.581  11.229  0.00  0.00    -0.343 OA
ATOM     40  C   UNL     1      -0.794  14.022  11.083  0.00  0.00    +0.198 C 
ENDBRANCH  25  39
ENDBRANCH  22  23
BRANCH  22  41
ATOM     41  O   UNL     1      -2.651  10.122  15.398  0.00  0.00    -0.387 OA
ATOM     42  H   UNL     1      -3.430  10.530  15.783  0.00  0.00    +0.210 HD
ENDBRANCH  22  41
ENDBRANCH   1  22
TORSDOF 14
