REMARK VINA RESULT:    -4.118      0.000      0.000
REMARK INTER + INTRA:         -12.948
REMARK INTER:                  -8.052
REMARK INTRA:                  -4.896
REMARK UNBOUND:                -4.498
REMARK  Name = lig_assembled_33.pdb
REMARK  22 active torsions:
REMARK  status: ('A' for Active; 'I' for Inactive)
REMARK    1  A    between atoms: _2  and  _9
REMARK    2  A    between atoms: _4  and  _20
REMARK    3  A    between atoms: _5  and  _13
REMARK    4  A    between atoms: _5  and  _14
REMARK    5  A    between atoms: _6  and  _7
REMARK    6  A    between atoms: _6  and  _20
REMARK    7  A    between atoms: _9  and  _10
REMARK    8  A    between atoms: _10  and  _11
REMARK    9  A    between atoms: _11  and  _12
REMARK   10  A    between atoms: _12  and  _13
REMARK   11  A    between atoms: _16  and  _36
REMARK   12  A    between atoms: _18  and  _24
REMARK   13  A    between atoms: _19  and  _23
REMARK   14  A    between atoms: _23  and  _24
REMARK   15  A    between atoms: _26  and  _27
REMARK   16  A    between atoms: _28  and  _29
REMARK   17  A    between atoms: _30  and  _32
REMARK   18  A    between atoms: _32  and  _33
REMARK   19  A    between atoms: _32  and  _34
REMARK   20  A    between atoms: _34  and  _35
REMARK   21  A    between atoms: _34  and  _36
REMARK   22  A    between atoms: _37  and  _39
REMARK                            x       y       z     vdW  Elec       q    Type
REMARK                         _______ _______ _______ _____ _____    ______ ____
ROOT
ATOM      1  C   UNL     1      -2.086   8.072  27.761  0.00  0.00    +0.163 C 
ENDROOT
BRANCH   1   2
ATOM      2  O   UNL     1      -2.133   9.487  27.514  0.00  0.00    -0.388 OA
ATOM      3  H   UNL     1      -1.868   9.663  26.608  0.00  0.00    +0.210 HD
ENDBRANCH   1   2
BRANCH   1   4
ATOM      4  C   UNL     1      -2.946   7.699  28.981  0.00  0.00    +0.175 C 
BRANCH   4   5
ATOM      5  C   UNL     1      -3.891   8.837  29.392  0.00  0.00    +0.176 C 
ATOM      6  O   UNL     1      -3.116   9.815  30.138  0.00  0.00    -0.332 OA
ATOM      7  C   UNL     1      -3.834  11.032  30.525  0.00  0.00    +0.277 C 
ATOM      8  C   UNL     1      -5.120  10.675  31.311  0.00  0.00    +0.110 C 
ATOM      9  C   UNL     1      -5.963   9.614  30.572  0.00  0.00    +0.143 C 
ATOM     10  C   UNL     1      -5.116   8.392  30.214  0.00  0.00    +0.133 C 
BRANCH  10  11
ATOM     11  N   UNL     1      -5.907   7.427  29.435  0.00  0.00    -0.308 N 
ATOM     12  H   UNL     1      -6.272   7.728  28.542  0.00  0.00    +0.149 HD
ATOM     13  C   UNL     1      -6.174   6.180  29.830  0.00  0.00    +0.210 C 
ATOM     14  C   UNL     1      -5.626   5.760  31.207  0.00  0.00    +0.109 C 
ATOM     15  O   UNL     1      -6.827   5.388  29.149  0.00  0.00    -0.276 OA
ENDBRANCH  10  11
BRANCH   7  16
ATOM     16  C   UNL     1      -4.205  11.867  29.282  0.00  0.00    +0.414 C 
ATOM     17  O   UNL     1      -3.442  11.916  28.318  0.00  0.00    -0.240 OA
ATOM     18  O   UNL     1      -5.266  12.492  29.243  0.00  0.00    -0.240 OA
ENDBRANCH   7  16
BRANCH   9  19
ATOM     19  O   UNL     1      -7.054   9.205  31.397  0.00  0.00    -0.390 OA
ATOM     20  H   UNL     1      -6.739   8.592  32.065  0.00  0.00    +0.210 HD
ENDBRANCH   9  19
BRANCH   7  21
ATOM     21  O   UNL     1      -2.968  11.808  31.394  0.00  0.00    -0.343 OA
ATOM     22  C   UNL     1      -3.656  12.598  32.397  0.00  0.00    +0.198 C 
ENDBRANCH   7  21
ENDBRANCH   4   5
BRANCH   4  23
ATOM     23  O   UNL     1      -2.102   7.329  30.089  0.00  0.00    -0.387 OA
ATOM     24  H   UNL     1      -1.182   7.464  29.850  0.00  0.00    +0.210 HD
ENDBRANCH   4  23
ENDBRANCH   1   4
BRANCH   1  25
ATOM     25  C   UNL     1      -2.582   7.312  26.536  0.00  0.00    +0.141 C 
BRANCH  25  28
ATOM     26  C   UNL     1      -4.870   7.844  25.769  0.00  0.00    +0.401 C 
ATOM     27  O   UNL     1      -5.398   6.930  26.407  0.00  0.00    -0.226 OA
ATOM     28  N   UNL     1      -3.560   8.091  25.766  0.00  0.00    -0.279 N 
ATOM     29  H   UNL     1      -3.221   8.859  25.203  0.00  0.00    +0.152 HD
BRANCH  26  30
ATOM     30  O   UNL     1      -5.694   8.701  24.974  0.00  0.00    -0.444 OA
BRANCH  30  31
ATOM     31  C   UNL     1      -5.645   8.277  23.608  0.00  0.00    +0.292 C 
BRANCH  31  33
ATOM     32  N   UNL     1      -3.533   8.988  22.534  0.00  0.00    -0.131 NA
ATOM     33  C   UNL     1      -4.855   9.226  22.803  0.00  0.00    +0.120 A 
ATOM     34  C   UNL     1      -5.225  10.419  22.219  0.00  0.00    +0.137 A 
ATOM     35  N   UNL     1      -4.087  10.848  21.606  0.00  0.00    -0.251 N 
ATOM     36  N   UNL     1      -3.068   9.996  21.811  0.00  0.00    -0.065 NA
BRANCH  35  37
ATOM     37  C   UNL     1      -3.887  12.052  20.825  0.00  0.00    +0.145 C 
BRANCH  37  38
ATOM     38  C   UNL     1      -3.264  13.175  21.651  0.00  0.00    +0.023 C 
BRANCH  38  39
ATOM     39  C   UNL     1      -4.299  13.949  22.471  0.00  0.00    +0.002 C 
BRANCH  39  40
ATOM     40  C   UNL     1      -4.281  13.465  23.923  0.00  0.00    +0.011 C 
BRANCH  40  41
ATOM     41  C   UNL     1      -2.907  12.968  24.364  0.00  0.00    +0.120 C 
BRANCH  41  42
ATOM     42  C   UNL     1      -2.997  11.597  24.998  0.00  0.00    +0.305 C 
ATOM     43  O   UNL     1      -2.090  10.783  25.054  0.00  0.00    -0.251 OA
BRANCH  42  44
ATOM     44  O   UNL     1      -4.220  11.352  25.522  0.00  0.00    -0.481 OA
ATOM     45  H   UNL     1      -4.756  12.153  25.665  0.00  0.00    +0.295 HD
ENDBRANCH  42  44
ENDBRANCH  41  42
ENDBRANCH  40  41
ENDBRANCH  39  40
ENDBRANCH  38  39
ENDBRANCH  37  38
ENDBRANCH  35  37
ENDBRANCH  31  33
ENDBRANCH  30  31
ENDBRANCH  26  30
ENDBRANCH  25  28
ENDBRANCH   1  25
TORSDOF 20
