REMARK VINA RESULT:    -5.261      9.440     12.988
REMARK INTER + INTRA:         -10.943
REMARK INTER:                  -8.261
REMARK INTRA:                  -2.682
REMARK UNBOUND:                -1.837
REMARK  Name = lig_assembled_2.pdb
REMARK  16 active torsions:
REMARK  status: ('A' for Active; 'I' for Inactive)
REMARK    1  A    between atoms: _2  and  _9
REMARK    2  A    between atoms: _4  and  _18
REMARK    3  A    between atoms: _6  and  _7
REMARK    4  A    between atoms: _6  and  _18
REMARK    5  A    between atoms: _14  and  _34
REMARK    6  A    between atoms: _16  and  _22
REMARK    7  A    between atoms: _17  and  _21
REMARK    8  A    between atoms: _21  and  _22
REMARK    9  A    between atoms: _24  and  _25
REMARK   10  A    between atoms: _26  and  _27
REMARK   11  A    between atoms: _28  and  _30
REMARK   12  A    between atoms: _30  and  _31
REMARK   13  A    between atoms: _30  and  _32
REMARK   14  A    between atoms: _32  and  _33
REMARK   15  A    between atoms: _32  and  _34
REMARK   16  A    between atoms: _35  and  _37
REMARK                            x       y       z     vdW  Elec       q    Type
REMARK                         _______ _______ _______ _____ _____    ______ ____
ROOT
ATOM      1  C   UNL     1      -2.348   9.814  27.065  0.00  0.00    +0.163 C 
ENDROOT
BRANCH   1   2
ATOM      2  O   UNL     1      -1.151   9.862  26.272  0.00  0.00    -0.388 OA
ATOM      3  H   UNL     1      -0.505  10.428  26.700  0.00  0.00    +0.210 HD
ENDBRANCH   1   2
BRANCH   1   4
ATOM      4  C   UNL     1      -2.098   9.015  28.340  0.00  0.00    +0.141 C 
BRANCH   4   7
ATOM      5  C   UNL     1      -3.633   8.881  30.271  0.00  0.00    +0.401 C 
ATOM      6  O   UNL     1      -3.890   7.686  30.104  0.00  0.00    -0.226 OA
ATOM      7  N   UNL     1      -2.811   9.583  29.491  0.00  0.00    -0.279 N 
ATOM      8  H   UNL     1      -2.672  10.561  29.703  0.00  0.00    +0.152 HD
BRANCH   5   9
ATOM      9  O   UNL     1      -4.246   9.577  31.360  0.00  0.00    -0.444 OA
BRANCH   9  10
ATOM     10  C   UNL     1      -3.245   9.961  32.306  0.00  0.00    +0.292 C 
BRANCH  10  12
ATOM     11  N   UNL     1      -1.811  11.974  32.200  0.00  0.00    -0.131 NA
ATOM     12  C   UNL     1      -3.056  11.424  32.285  0.00  0.00    +0.121 A 
ATOM     13  C   UNL     1      -3.992  12.433  32.332  0.00  0.00    +0.143 A 
ATOM     14  N   UNL     1      -3.263  13.597  32.242  0.00  0.00    -0.220 N 
ATOM     15  N   UNL     1      -1.943  13.294  32.182  0.00  0.00    -0.060 NA
BRANCH  14  16
ATOM     16  C   UNL     1      -3.732  14.935  32.184  0.00  0.00    +0.067 A 
ATOM     17  C   UNL     1      -4.217  15.580  33.330  0.00  0.00    +0.029 A 
ATOM     18  C   UNL     1      -4.709  16.887  33.243  0.00  0.00    +0.022 A 
ATOM     19  C   UNL     1      -4.716  17.550  32.018  0.00  0.00    +0.041 A 
ATOM     20 CL   UNL     1      -5.344  19.148  31.916  0.00  0.00    -0.084 Cl
ATOM     21  C   UNL     1      -4.223  16.924  30.876  0.00  0.00    +0.022 A 
ATOM     22  C   UNL     1      -3.728  15.619  30.955  0.00  0.00    +0.029 A 
ENDBRANCH  14  16
ENDBRANCH  10  12
ENDBRANCH   9  10
ENDBRANCH   5   9
ENDBRANCH   4   7
ENDBRANCH   1   4
BRANCH   1  23
ATOM     23  C   UNL     1      -3.505   9.175  26.278  0.00  0.00    +0.175 C 
BRANCH  23  24
ATOM     24  C   UNL     1      -4.215  10.189  25.368  0.00  0.00    +0.176 C 
ATOM     25  O   UNL     1      -3.346  10.455  24.232  0.00  0.00    -0.332 OA
ATOM     26  C   UNL     1      -3.907  11.327  23.196  0.00  0.00    +0.277 C 
ATOM     27  C   UNL     1      -4.384  12.664  23.814  0.00  0.00    +0.110 C 
ATOM     28  C   UNL     1      -5.286  12.432  25.045  0.00  0.00    +0.143 C 
ATOM     29  C   UNL     1      -4.606  11.509  26.057  0.00  0.00    +0.133 C 
BRANCH  29  30
ATOM     30  N   UNL     1      -5.508  11.227  27.184  0.00  0.00    -0.308 N 
ATOM     31  H   UNL     1      -6.309  10.635  27.011  0.00  0.00    +0.149 HD
ATOM     32  C   UNL     1      -5.339  11.701  28.421  0.00  0.00    +0.210 C 
ATOM     33  C   UNL     1      -4.124  12.621  28.647  0.00  0.00    +0.109 C 
ATOM     34  O   UNL     1      -6.103  11.436  29.350  0.00  0.00    -0.276 OA
ENDBRANCH  29  30
BRANCH  26  35
ATOM     35  C   UNL     1      -5.089  10.638  22.482  0.00  0.00    +0.414 C 
ATOM     36  O   UNL     1      -4.937   9.537  21.953  0.00  0.00    -0.240 OA
ATOM     37  O   UNL     1      -6.193  11.182  22.435  0.00  0.00    -0.240 OA
ENDBRANCH  26  35
BRANCH  28  38
ATOM     38  O   UNL     1      -5.577  13.683  25.671  0.00  0.00    -0.390 OA
ATOM     39  H   UNL     1      -5.683  13.552  26.616  0.00  0.00    +0.210 HD
ENDBRANCH  28  38
BRANCH  26  40
ATOM     40  O   UNL     1      -2.858  11.615  22.236  0.00  0.00    -0.343 OA
ATOM     41  C   UNL     1      -3.226  12.549  21.189  0.00  0.00    +0.198 C 
ENDBRANCH  26  40
ENDBRANCH  23  24
BRANCH  23  42
ATOM     42  O   UNL     1      -4.451   8.574  27.184  0.00  0.00    -0.387 OA
ATOM     43  H   UNL     1      -4.481   9.082  27.999  0.00  0.00    +0.210 HD
ENDBRANCH  23  42
ENDBRANCH   1  23
TORSDOF 14
