REMARK VINA RESULT:    -4.607      3.244      8.555
REMARK INTER + INTRA:         -11.000
REMARK INTER:                  -8.156
REMARK INTRA:                  -2.844
REMARK UNBOUND:                -2.756
REMARK  Name = lig_assembled_41.pdb
REMARK  18 active torsions:
REMARK  status: ('A' for Active; 'I' for Inactive)
REMARK    1  A    between atoms: _2  and  _9
REMARK    2  A    between atoms: _4  and  _21
REMARK    3  A    between atoms: _6  and  _7
REMARK    4  A    between atoms: _6  and  _21
REMARK    5  A    between atoms: _10  and  _11
REMARK    6  A    between atoms: _11  and  _12
REMARK    7  A    between atoms: _17  and  _37
REMARK    8  A    between atoms: _19  and  _25
REMARK    9  A    between atoms: _20  and  _24
REMARK   10  A    between atoms: _24  and  _25
REMARK   11  A    between atoms: _27  and  _28
REMARK   12  A    between atoms: _29  and  _30
REMARK   13  A    between atoms: _31  and  _33
REMARK   14  A    between atoms: _33  and  _34
REMARK   15  A    between atoms: _33  and  _35
REMARK   16  A    between atoms: _35  and  _36
REMARK   17  A    between atoms: _35  and  _37
REMARK   18  A    between atoms: _38  and  _40
REMARK                            x       y       z     vdW  Elec       q    Type
REMARK                         _______ _______ _______ _____ _____    ______ ____
ROOT
ATOM      1  C   UNL     1      -5.277   7.392  24.155  0.00  0.00    +0.163 C 
ENDROOT
BRANCH   1   2
ATOM      2  O   UNL     1      -4.055   6.889  24.721  0.00  0.00    -0.388 OA
ATOM      3  H   UNL     1      -3.309   7.362  24.346  0.00  0.00    +0.210 HD
ENDBRANCH   1   2
BRANCH   1   4
ATOM      4  C   UNL     1      -5.757   6.465  23.044  0.00  0.00    +0.141 C 
BRANCH   4   7
ATOM      5  C   UNL     1      -7.590   7.079  21.504  0.00  0.00    +0.401 C 
ATOM      6  O   UNL     1      -8.405   6.308  22.017  0.00  0.00    -0.226 OA
ATOM      7  N   UNL     1      -6.329   7.211  21.917  0.00  0.00    -0.279 N 
ATOM      8  H   UNL     1      -5.733   7.863  21.426  0.00  0.00    +0.152 HD
BRANCH   5   9
ATOM      9  O   UNL     1      -7.998   7.885  20.396  0.00  0.00    -0.444 OA
BRANCH   9  10
ATOM     10  C   UNL     1      -7.048   8.934  20.193  0.00  0.00    +0.292 C 
BRANCH  10  12
ATOM     11  N   UNL     1      -7.245   8.430  17.787  0.00  0.00    -0.131 NA
ATOM     12  C   UNL     1      -6.486   8.862  18.833  0.00  0.00    +0.121 A 
ATOM     13  C   UNL     1      -5.232   9.197  18.370  0.00  0.00    +0.143 A 
ATOM     14  N   UNL     1      -5.235   8.847  17.039  0.00  0.00    -0.219 N 
ATOM     15  N   UNL     1      -6.499   8.473  16.694  0.00  0.00    -0.060 NA
BRANCH  14  16
ATOM     16  C   UNL     1      -4.212   8.931  16.052  0.00  0.00    +0.077 A 
ATOM     17  C   UNL     1      -4.025  10.023  15.179  0.00  0.00    +0.043 A 
ATOM     18  C   UNL     1      -2.999   9.952  14.213  0.00  0.00    +0.013 A 
ATOM     19  C   UNL     1      -2.180   8.826  14.105  0.00  0.00    +0.001 A 
ATOM     20  C   UNL     1      -2.348   7.763  14.980  0.00  0.00    +0.002 A 
ATOM     21  C   UNL     1      -3.345   7.819  15.952  0.00  0.00    +0.028 A 
BRANCH  17  22
ATOM     22  C   UNL     1      -4.705  11.344  15.340  0.00  0.00    +0.162 C 
ATOM     23  O   UNL     1      -5.612  11.653  14.570  0.00  0.00    -0.292 OA
ATOM     24  C   UNL     1      -4.282  12.289  16.440  0.00  0.00    +0.091 C 
ENDBRANCH  17  22
ENDBRANCH  14  16
ENDBRANCH  10  12
ENDBRANCH   9  10
ENDBRANCH   5   9
ENDBRANCH   4   7
ENDBRANCH   1   4
BRANCH   1  25
ATOM     25  C   UNL     1      -5.078   8.810  23.592  0.00  0.00    +0.175 C 
BRANCH  25  26
ATOM     26  C   UNL     1      -3.951   9.565  24.311  0.00  0.00    +0.176 C 
ATOM     27  O   UNL     1      -4.266   9.592  25.731  0.00  0.00    -0.332 OA
ATOM     28  C   UNL     1      -3.243  10.185  26.596  0.00  0.00    +0.277 C 
ATOM     29  C   UNL     1      -2.886  11.612  26.112  0.00  0.00    +0.110 C 
ATOM     30  C   UNL     1      -2.574  11.640  24.601  0.00  0.00    +0.143 C 
ATOM     31  C   UNL     1      -3.703  10.995  23.796  0.00  0.00    +0.133 C 
BRANCH  31  32
ATOM     32  N   UNL     1      -3.356  10.949  22.367  0.00  0.00    -0.308 N 
ATOM     33  H   UNL     1      -2.566  10.382  22.092  0.00  0.00    +0.149 HD
ATOM     34  C   UNL     1      -4.015  11.608  21.410  0.00  0.00    +0.210 C 
ATOM     35  C   UNL     1      -5.197  12.485  21.866  0.00  0.00    +0.109 C 
ATOM     36  O   UNL     1      -3.710  11.539  20.219  0.00  0.00    -0.276 OA
ENDBRANCH  31  32
BRANCH  28  37
ATOM     37  C   UNL     1      -1.970   9.314  26.614  0.00  0.00    +0.414 C 
ATOM     38  O   UNL     1      -2.057   8.088  26.568  0.00  0.00    -0.240 OA
ATOM     39  O   UNL     1      -0.856   9.837  26.675  0.00  0.00    -0.240 OA
ENDBRANCH  28  37
BRANCH  30  40
ATOM     40  O   UNL     1      -2.401  12.990  24.169  0.00  0.00    -0.390 OA
ATOM     41  H   UNL     1      -1.463  13.189  24.108  0.00  0.00    +0.210 HD
ENDBRANCH  30  40
BRANCH  28  42
ATOM     42  O   UNL     1      -3.789  10.280  27.937  0.00  0.00    -0.343 OA
ATOM     43  C   UNL     1      -3.779  11.613  28.509  0.00  0.00    +0.198 C 
ENDBRANCH  28  42
ENDBRANCH  25  26
BRANCH  25  44
ATOM     44  O   UNL     1      -6.310   9.555  23.677  0.00  0.00    -0.387 OA
ATOM     45  H   UNL     1      -6.125  10.442  23.993  0.00  0.00    +0.210 HD
ENDBRANCH  25  44
ENDBRANCH   1  25
TORSDOF 15
