REMARK VINA RESULT:    -4.189      2.978      5.744
REMARK INTER + INTRA:         -11.629
REMARK INTER:                  -8.936
REMARK INTRA:                  -2.693
REMARK UNBOUND:                -3.890
REMARK  Name = lig_assembled_66.pdb
REMARK  18 active torsions:
REMARK  status: ('A' for Active; 'I' for Inactive)
REMARK    1  A    between atoms: _2  and  _10
REMARK    2  A    between atoms: _5  and  _21
REMARK    3  A    between atoms: _7  and  _8
REMARK    4  A    between atoms: _7  and  _21
REMARK    5  A    between atoms: _10  and  _11
REMARK    6  A    between atoms: _15  and  _16
REMARK    7  A    between atoms: _17  and  _37
REMARK    8  A    between atoms: _19  and  _25
REMARK    9  A    between atoms: _20  and  _24
REMARK   10  A    between atoms: _24  and  _25
REMARK   11  A    between atoms: _27  and  _28
REMARK   12  A    between atoms: _29  and  _30
REMARK   13  A    between atoms: _31  and  _33
REMARK   14  A    between atoms: _33  and  _34
REMARK   15  A    between atoms: _33  and  _35
REMARK   16  A    between atoms: _35  and  _36
REMARK   17  A    between atoms: _35  and  _37
REMARK   18  A    between atoms: _38  and  _40
REMARK                            x       y       z     vdW  Elec       q    Type
REMARK                         _______ _______ _______ _____ _____    ______ ____
ROOT
ATOM      1  C   UNL     1      -4.992   8.510  22.012  0.00  0.00    +0.163 C 
ENDROOT
BRANCH   1   2
ATOM      2  O   UNL     1      -5.235   8.684  20.606  0.00  0.00    -0.388 OA
ATOM      3  H   UNL     1      -4.550   9.241  20.228  0.00  0.00    +0.210 HD
ENDBRANCH   1   2
BRANCH   1   4
ATOM      4  C   UNL     1      -5.826   9.502  22.841  0.00  0.00    +0.175 C 
BRANCH   4   5
ATOM      5  C   UNL     1      -4.998  10.712  23.299  0.00  0.00    +0.176 C 
ATOM      6  O   UNL     1      -5.116  10.813  24.744  0.00  0.00    -0.332 OA
ATOM      7  C   UNL     1      -4.301  11.855  25.375  0.00  0.00    +0.277 C 
ATOM      8  C   UNL     1      -4.590  13.233  24.730  0.00  0.00    +0.110 C 
ATOM      9  C   UNL     1      -4.508  13.168  23.190  0.00  0.00    +0.143 C 
ATOM     10  C   UNL     1      -5.391  12.047  22.640  0.00  0.00    +0.133 C 
BRANCH  10  11
ATOM     11  N   UNL     1      -5.238  11.940  21.181  0.00  0.00    -0.308 N 
ATOM     12  H   UNL     1      -4.329  11.687  20.819  0.00  0.00    +0.149 HD
ATOM     13  C   UNL     1      -6.221  12.154  20.303  0.00  0.00    +0.210 C 
ATOM     14  C   UNL     1      -7.588  12.562  20.884  0.00  0.00    +0.109 C 
ATOM     15  O   UNL     1      -6.068  12.042  19.086  0.00  0.00    -0.276 OA
ENDBRANCH  10  11
BRANCH   7  16
ATOM     16  C   UNL     1      -2.799  11.530  25.245  0.00  0.00    +0.414 C 
ATOM     17  O   UNL     1      -2.406  10.367  25.337  0.00  0.00    -0.240 OA
ATOM     18  O   UNL     1      -1.980  12.428  25.047  0.00  0.00    -0.240 OA
ENDBRANCH   7  16
BRANCH   7  19
ATOM     19  O   UNL     1      -4.666  11.923  26.778  0.00  0.00    -0.343 OA
ATOM     20  C   UNL     1      -5.893  12.642  27.058  0.00  0.00    +0.198 C 
ENDBRANCH   7  19
BRANCH   9  21
ATOM     21  O   UNL     1      -4.928  14.414  22.633  0.00  0.00    -0.390 OA
ATOM     22  H   UNL     1      -4.334  14.663  21.920  0.00  0.00    +0.210 HD
ENDBRANCH   9  21
ENDBRANCH   4   5
BRANCH   4  23
ATOM     23  O   UNL     1      -6.402   8.834  23.981  0.00  0.00    -0.387 OA
ATOM     24  H   UNL     1      -7.226   8.413  23.724  0.00  0.00    +0.210 HD
ENDBRANCH   4  23
ENDBRANCH   1   4
BRANCH   1  25
ATOM     25  C   UNL     1      -5.334   7.084  22.428  0.00  0.00    +0.141 C 
BRANCH  25  28
ATOM     26  C   UNL     1      -3.198   6.236  23.337  0.00  0.00    +0.401 C 
ATOM     27  O   UNL     1      -2.623   6.243  22.246  0.00  0.00    -0.226 OA
ATOM     28  N   UNL     1      -4.467   6.607  23.513  0.00  0.00    -0.279 N 
ATOM     29  H   UNL     1      -4.853   6.558  24.445  0.00  0.00    +0.152 HD
BRANCH  26  30
ATOM     30  O   UNL     1      -2.482   5.804  24.497  0.00  0.00    -0.444 OA
BRANCH  30  31
ATOM     31  C   UNL     1      -3.388   5.672  25.596  0.00  0.00    +0.292 C 
BRANCH  31  33
ATOM     32  N   UNL     1      -1.898   7.319  26.694  0.00  0.00    -0.131 NA
ATOM     33  C   UNL     1      -2.838   6.328  26.798  0.00  0.00    +0.120 A 
ATOM     34  C   UNL     1      -3.148   6.140  28.126  0.00  0.00    +0.137 A 
ATOM     35  N   UNL     1      -2.407   7.085  28.776  0.00  0.00    -0.247 N 
ATOM     36  N   UNL     1      -1.641   7.778  27.912  0.00  0.00    -0.065 NA
BRANCH  35  37
ATOM     37  C   UNL     1      -2.566   7.543  30.143  0.00  0.00    +0.180 C 
BRANCH  37  38
ATOM     38  C   UNL     1      -3.240   8.888  30.247  0.00  0.00    -0.025 A 
ATOM     39  C   UNL     1      -4.523   9.081  29.714  0.00  0.00    +0.005 A 
ATOM     40  C   UNL     1      -5.188  10.298  29.879  0.00  0.00    +0.002 A 
ATOM     41  C   UNL     1      -4.571  11.345  30.563  0.00  0.00    +0.019 A 
ATOM     42  C   UNL     1      -3.279  11.181  31.070  0.00  0.00    +0.052 A 
ATOM     43  C   UNL     1      -2.617   9.956  30.913  0.00  0.00    +0.024 A 
BRANCH  42  44
ATOM     44  C   UNL     1      -2.635  12.261  31.759  0.00  0.00    +0.099 C 
ATOM     45  N   UNL     1      -2.120  13.136  32.323  0.00  0.00    -0.191 NA
ENDBRANCH  42  44
ENDBRANCH  37  38
ENDBRANCH  35  37
ENDBRANCH  31  33
ENDBRANCH  30  31
ENDBRANCH  26  30
ENDBRANCH  25  28
ENDBRANCH   1  25
TORSDOF 16
