REMARK VINA RESULT:    -5.069      2.655     12.583
REMARK INTER + INTRA:         -12.253
REMARK INTER:                 -10.124
REMARK INTRA:                  -2.128
REMARK UNBOUND:                -2.590
REMARK  Name = lig_assembled_29.pdb
REMARK  21 active torsions:
REMARK  status: ('A' for Active; 'I' for Inactive)
REMARK    1  A    between atoms: _2  and  _9
REMARK    2  A    between atoms: _4  and  _23
REMARK    3  A    between atoms: _6  and  _7
REMARK    4  A    between atoms: _6  and  _23
REMARK    5  A    between atoms: _9  and  _10
REMARK    6  A    between atoms: _12  and  _18
REMARK    7  A    between atoms: _13  and  _18
REMARK    8  A    between atoms: _14  and  _17
REMARK    9  A    between atoms: _15  and  _17
REMARK   10  A    between atoms: _19  and  _39
REMARK   11  A    between atoms: _21  and  _27
REMARK   12  A    between atoms: _22  and  _26
REMARK   13  A    between atoms: _26  and  _27
REMARK   14  A    between atoms: _29  and  _30
REMARK   15  A    between atoms: _31  and  _32
REMARK   16  A    between atoms: _33  and  _35
REMARK   17  A    between atoms: _35  and  _36
REMARK   18  A    between atoms: _35  and  _37
REMARK   19  A    between atoms: _37  and  _38
REMARK   20  A    between atoms: _37  and  _39
REMARK   21  A    between atoms: _40  and  _42
REMARK                            x       y       z     vdW  Elec       q    Type
REMARK                         _______ _______ _______ _____ _____    ______ ____
ROOT
ATOM      1  C   UNL     1      -4.023  12.754  14.346  0.00  0.00    +0.163 C 
ENDROOT
BRANCH   1   2
ATOM      2  O   UNL     1      -3.007  12.617  15.353  0.00  0.00    -0.388 OA
ATOM      3  H   UNL     1      -2.256  12.142  14.988  0.00  0.00    +0.210 HD
ENDBRANCH   1   2
BRANCH   1   4
ATOM      4  C   UNL     1      -3.596  12.070  13.036  0.00  0.00    +0.175 C 
BRANCH   4   5
ATOM      5  C   UNL     1      -3.511  10.543  13.182  0.00  0.00    +0.176 C 
ATOM      6  O   UNL     1      -2.461  10.243  14.142  0.00  0.00    -0.332 OA
ATOM      7  C   UNL     1      -2.306   8.828  14.490  0.00  0.00    +0.277 C 
ATOM      8  C   UNL     1      -2.106   7.975  13.212  0.00  0.00    +0.110 C 
ATOM      9  C   UNL     1      -3.182   8.283  12.149  0.00  0.00    +0.143 C 
ATOM     10  C   UNL     1      -3.260   9.784  11.866  0.00  0.00    +0.133 C 
BRANCH  10  11
ATOM     11  N   UNL     1      -4.346  10.073  10.916  0.00  0.00    -0.308 N 
ATOM     12  H   UNL     1      -5.282   9.792  11.171  0.00  0.00    +0.149 HD
ATOM     13  C   UNL     1      -4.175  10.682   9.740  0.00  0.00    +0.210 C 
ATOM     14  C   UNL     1      -2.732  11.073   9.369  0.00  0.00    +0.109 C 
ATOM     15  O   UNL     1      -5.105  10.924   8.970  0.00  0.00    -0.276 OA
ENDBRANCH  10  11
BRANCH   7  16
ATOM     16  C   UNL     1      -3.539   8.316  15.263  0.00  0.00    +0.414 C 
ATOM     17  O   UNL     1      -3.952   8.929  16.247  0.00  0.00    -0.240 OA
ATOM     18  O   UNL     1      -4.120   7.291  14.904  0.00  0.00    -0.240 OA
ENDBRANCH   7  16
BRANCH   7  19
ATOM     19  O   UNL     1      -1.122   8.696  15.317  0.00  0.00    -0.343 OA
ATOM     20  C   UNL     1      -0.802   7.340  15.718  0.00  0.00    +0.198 C 
ENDBRANCH   7  19
BRANCH   9  21
ATOM     21  O   UNL     1      -2.873   7.591  10.938  0.00  0.00    -0.390 OA
ATOM     22  H   UNL     1      -2.291   6.852  11.130  0.00  0.00    +0.210 HD
ENDBRANCH   9  21
ENDBRANCH   4   5
BRANCH   4  23
ATOM     23  O   UNL     1      -2.330  12.597  12.591  0.00  0.00    -0.387 OA
ATOM     24  H   UNL     1      -2.271  12.524  11.635  0.00  0.00    +0.210 HD
ENDBRANCH   4  23
ENDBRANCH   1   4
BRANCH   1  25
ATOM     25  C   UNL     1      -5.330  12.140  14.838  0.00  0.00    +0.141 C 
BRANCH  25  28
ATOM     26  C   UNL     1      -6.149  11.627  17.112  0.00  0.00    +0.401 C 
ATOM     27  O   UNL     1      -7.241  12.177  16.945  0.00  0.00    -0.226 OA
ATOM     28  N   UNL     1      -5.194  11.568  16.183  0.00  0.00    -0.279 N 
ATOM     29  H   UNL     1      -4.328  11.104  16.418  0.00  0.00    +0.152 HD
BRANCH  26  30
ATOM     30  O   UNL     1      -5.867  11.013  18.372  0.00  0.00    -0.444 OA
BRANCH  30  31
ATOM     31  C   UNL     1      -6.430  11.801  19.425  0.00  0.00    +0.292 C 
BRANCH  31  33
ATOM     32  N   UNL     1      -4.094  11.757  20.257  0.00  0.00    -0.131 NA
ATOM     33  C   UNL     1      -5.388  12.184  20.396  0.00  0.00    +0.120 A 
ATOM     34  C   UNL     1      -5.479  12.989  21.509  0.00  0.00    +0.137 A 
ATOM     35  N   UNL     1      -4.190  13.086  21.948  0.00  0.00    -0.247 N 
ATOM     36  N   UNL     1      -3.369  12.308  21.222  0.00  0.00    -0.065 NA
BRANCH  35  37
ATOM     37  C   UNL     1      -3.667  13.929  23.006  0.00  0.00    +0.180 C 
BRANCH  37  38
ATOM     38  C   UNL     1      -3.771  13.237  24.346  0.00  0.00    -0.022 A 
ATOM     39  C   UNL     1      -2.743  12.383  24.783  0.00  0.00    +0.054 A 
ATOM     40  C   UNL     1      -2.790  11.797  26.056  0.00  0.00    +0.162 A 
ATOM     41  C   UNL     1      -3.885  12.060  26.903  0.00  0.00    +0.162 A 
ATOM     42  C   UNL     1      -4.906  12.908  26.466  0.00  0.00    +0.050 A 
ATOM     43  C   UNL     1      -4.851  13.490  25.197  0.00  0.00    +0.009 A 
BRANCH  40  44
ATOM     44  O   UNL     1      -1.818  10.970  26.563  0.00  0.00    -0.491 OA
ATOM     45  C   UNL     1      -2.021   9.568  26.465  0.00  0.00    +0.277 C 
ENDBRANCH  40  44
BRANCH  41  46
ATOM     46  O   UNL     1      -3.862  11.444  28.131  0.00  0.00    -0.491 OA
ATOM     47  C   UNL     1      -5.014  10.712  28.524  0.00  0.00    +0.277 C 
ENDBRANCH  41  46
ENDBRANCH  37  38
ENDBRANCH  35  37
ENDBRANCH  31  33
ENDBRANCH  30  31
ENDBRANCH  26  30
ENDBRANCH  25  28
ENDBRANCH   1  25
TORSDOF 17
