REMARK VINA RESULT:    -4.153      3.336      9.965
REMARK INTER + INTRA:         -10.271
REMARK INTER:                  -8.175
REMARK INTRA:                  -2.096
REMARK UNBOUND:                -2.598
REMARK  Name = lig_assembled_67.pdb
REMARK  18 active torsions:
REMARK  status: ('A' for Active; 'I' for Inactive)
REMARK    1  A    between atoms: _2  and  _9
REMARK    2  A    between atoms: _4  and  _19
REMARK    3  A    between atoms: _6  and  _7
REMARK    4  A    between atoms: _6  and  _19
REMARK    5  A    between atoms: _9  and  _10
REMARK    6  A    between atoms: _10  and  _11
REMARK    7  A    between atoms: _15  and  _35
REMARK    8  A    between atoms: _17  and  _23
REMARK    9  A    between atoms: _18  and  _22
REMARK   10  A    between atoms: _22  and  _23
REMARK   11  A    between atoms: _25  and  _26
REMARK   12  A    between atoms: _27  and  _28
REMARK   13  A    between atoms: _29  and  _31
REMARK   14  A    between atoms: _31  and  _32
REMARK   15  A    between atoms: _31  and  _33
REMARK   16  A    between atoms: _33  and  _34
REMARK   17  A    between atoms: _33  and  _35
REMARK   18  A    between atoms: _36  and  _38
REMARK                            x       y       z     vdW  Elec       q    Type
REMARK                         _______ _______ _______ _____ _____    ______ ____
ROOT
ATOM      1  C   UNL     1      -4.703  12.347  26.336  0.00  0.00    +0.163 C 
ENDROOT
BRANCH   1   2
ATOM      2  O   UNL     1      -5.668  11.547  25.633  0.00  0.00    -0.388 OA
ATOM      3  H   UNL     1      -5.447  11.526  24.699  0.00  0.00    +0.210 HD
ENDBRANCH   1   2
BRANCH   1   4
ATOM      4  C   UNL     1      -4.659  11.972  27.827  0.00  0.00    +0.175 C 
BRANCH   4   5
ATOM      5  C   UNL     1      -3.948  10.631  28.065  0.00  0.00    +0.176 C 
ATOM      6  O   UNL     1      -4.716   9.593  27.397  0.00  0.00    -0.332 OA
ATOM      7  C   UNL     1      -4.128   8.251  27.427  0.00  0.00    +0.277 C 
ATOM      8  C   UNL     1      -3.827   7.824  28.885  0.00  0.00    +0.110 C 
ATOM      9  C   UNL     1      -3.038   8.911  29.645  0.00  0.00    +0.143 C 
ATOM     10  C   UNL     1      -3.738  10.267  29.546  0.00  0.00    +0.133 C 
BRANCH  10  11
ATOM     11  N   UNL     1      -2.933  11.311  30.200  0.00  0.00    -0.308 N 
ATOM     12  H   UNL     1      -2.017  11.507  29.820  0.00  0.00    +0.149 HD
ATOM     13  C   UNL     1      -3.333  12.016  31.261  0.00  0.00    +0.210 C 
ATOM     14  C   UNL     1      -4.722  11.674  31.832  0.00  0.00    +0.109 C 
ATOM     15  O   UNL     1      -2.643  12.895  31.779  0.00  0.00    -0.276 OA
ENDBRANCH  10  11
BRANCH   7  16
ATOM     16  C   UNL     1      -2.828   8.205  26.597  0.00  0.00    +0.414 C 
ATOM     17  O   UNL     1      -2.818   8.613  25.437  0.00  0.00    -0.240 OA
ATOM     18  O   UNL     1      -1.790   7.760  27.088  0.00  0.00    -0.240 OA
ENDBRANCH   7  16
BRANCH   9  19
ATOM     19  O   UNL     1      -2.914   8.544  31.019  0.00  0.00    -0.390 OA
ATOM     20  H   UNL     1      -2.793   9.333  31.552  0.00  0.00    +0.210 HD
ENDBRANCH   9  19
BRANCH   7  21
ATOM     21  O   UNL     1      -5.096   7.324  26.870  0.00  0.00    -0.343 OA
ATOM     22  C   UNL     1      -4.762   5.922  27.028  0.00  0.00    +0.198 C 
ENDBRANCH   7  21
ENDBRANCH   4   5
BRANCH   4  23
ATOM     23  O   UNL     1      -5.994  11.928  28.368  0.00  0.00    -0.387 OA
ATOM     24  H   UNL     1      -6.614  12.269  27.719  0.00  0.00    +0.210 HD
ENDBRANCH   4  23
ENDBRANCH   1   4
BRANCH   1  25
ATOM     25  C   UNL     1      -3.321  12.158  25.721  0.00  0.00    +0.141 C 
BRANCH  25  28
ATOM     26  C   UNL     1      -3.274  11.925  23.262  0.00  0.00    +0.401 C 
ATOM     27  O   UNL     1      -3.134  13.133  23.056  0.00  0.00    -0.226 OA
ATOM     28  N   UNL     1      -3.376  11.383  24.476  0.00  0.00    -0.279 N 
ATOM     29  H   UNL     1      -3.499  10.382  24.543  0.00  0.00    +0.152 HD
BRANCH  26  30
ATOM     30  O   UNL     1      -3.338  11.033  22.146  0.00  0.00    -0.444 OA
BRANCH  30  31
ATOM     31  C   UNL     1      -4.704  10.829  21.776  0.00  0.00    +0.292 C 
BRANCH  31  33
ATOM     32  N   UNL     1      -4.890   9.205  19.918  0.00  0.00    -0.131 NA
ATOM     33  C   UNL     1      -4.806  10.506  20.340  0.00  0.00    +0.120 A 
ATOM     34  C   UNL     1      -4.834  11.336  19.242  0.00  0.00    +0.137 A 
ATOM     35  N   UNL     1      -4.933  10.482  18.187  0.00  0.00    -0.251 N 
ATOM     36  N   UNL     1      -4.964   9.203  18.594  0.00  0.00    -0.065 NA
BRANCH  35  37
ATOM     37  C   UNL     1      -5.015  10.804  16.779  0.00  0.00    +0.150 C 
BRANCH  37  38
ATOM     38  C   UNL     1      -3.862  11.674  16.283  0.00  0.00    +0.084 C 
BRANCH  38  39
ATOM     39  C   UNL     1      -2.888  10.904  15.404  0.00  0.00    +0.252 C 
ATOM     40  O   UNL     1      -3.314   9.544  15.268  0.00  0.00    -0.349 OA
ATOM     41  C   UNL     1      -2.812   9.173  13.986  0.00  0.00    +0.191 C 
ATOM     42  C   UNL     1      -2.968  10.433  13.174  0.00  0.00    +0.191 C 
ATOM     43  O   UNL     1      -2.804  11.503  14.107  0.00  0.00    -0.349 OA
ENDBRANCH  38  39
ENDBRANCH  37  38
ENDBRANCH  35  37
ENDBRANCH  31  33
ENDBRANCH  30  31
ENDBRANCH  26  30
ENDBRANCH  25  28
ENDBRANCH   1  25
TORSDOF 16
