REMARK VINA RESULT:    -5.396      2.937      8.777
REMARK INTER + INTRA:         -11.981
REMARK INTER:                  -7.946
REMARK INTRA:                  -4.034
REMARK UNBOUND:                -1.695
REMARK  Name = lig_assembled_12.pdb
REMARK  19 active torsions:
REMARK  status: ('A' for Active; 'I' for Inactive)
REMARK    1  A    between atoms: _2  and  _9
REMARK    2  A    between atoms: _4  and  _21
REMARK    3  A    between atoms: _6  and  _7
REMARK    4  A    between atoms: _6  and  _21
REMARK    5  A    between atoms: _9  and  _16
REMARK    6  A    between atoms: _10  and  _11
REMARK    7  A    between atoms: _10  and  _16
REMARK    8  A    between atoms: _17  and  _37
REMARK    9  A    between atoms: _19  and  _25
REMARK   10  A    between atoms: _20  and  _24
REMARK   11  A    between atoms: _24  and  _25
REMARK   12  A    between atoms: _27  and  _28
REMARK   13  A    between atoms: _29  and  _30
REMARK   14  A    between atoms: _31  and  _33
REMARK   15  A    between atoms: _33  and  _34
REMARK   16  A    between atoms: _33  and  _35
REMARK   17  A    between atoms: _35  and  _36
REMARK   18  A    between atoms: _35  and  _37
REMARK   19  A    between atoms: _38  and  _40
REMARK                            x       y       z     vdW  Elec       q    Type
REMARK                         _______ _______ _______ _____ _____    ______ ____
ROOT
ATOM      1  C   UNL     1      -4.019   8.561  24.143  0.00  0.00    +0.163 C 
ENDROOT
BRANCH   1   2
ATOM      2  O   UNL     1      -5.197   8.643  23.324  0.00  0.00    -0.388 OA
ATOM      3  H   UNL     1      -5.653   9.469  23.501  0.00  0.00    +0.210 HD
ENDBRANCH   1   2
BRANCH   1   4
ATOM      4  C   UNL     1      -3.924   9.767  25.093  0.00  0.00    +0.175 C 
BRANCH   4   5
ATOM      5  C   UNL     1      -4.801  10.939  24.628  0.00  0.00    +0.176 C 
ATOM      6  O   UNL     1      -4.190  11.511  23.439  0.00  0.00    -0.332 OA
ATOM      7  C   UNL     1      -4.951  12.583  22.789  0.00  0.00    +0.277 C 
ATOM      8  C   UNL     1      -5.276  13.707  23.802  0.00  0.00    +0.110 C 
ATOM      9  C   UNL     1      -5.899  13.143  25.097  0.00  0.00    +0.143 C 
ATOM     10  C   UNL     1      -5.028  12.034  25.687  0.00  0.00    +0.133 C 
BRANCH  10  11
ATOM     11  N   UNL     1      -5.675  11.446  26.871  0.00  0.00    -0.308 N 
ATOM     12  H   UNL     1      -6.589  11.032  26.752  0.00  0.00    +0.149 HD
ATOM     13  C   UNL     1      -5.133  11.423  28.091  0.00  0.00    +0.210 C 
ATOM     14  C   UNL     1      -3.750  12.085  28.244  0.00  0.00    +0.109 C 
ATOM     15  O   UNL     1      -5.691  10.911  29.062  0.00  0.00    -0.276 OA
ENDBRANCH  10  11
BRANCH   7  16
ATOM     16  C   UNL     1      -6.261  12.036  22.186  0.00  0.00    +0.414 C 
ATOM     17  O   UNL     1      -6.323  10.873  21.787  0.00  0.00    -0.240 OA
ATOM     18  O   UNL     1      -7.257  12.756  22.100  0.00  0.00    -0.240 OA
ENDBRANCH   7  16
BRANCH   9  19
ATOM     19  O   UNL     1      -6.043  14.190  26.058  0.00  0.00    -0.390 OA
ATOM     20  H   UNL     1      -5.194  14.617  26.195  0.00  0.00    +0.210 HD
ENDBRANCH   9  19
BRANCH   7  21
ATOM     21  O   UNL     1      -4.125  13.142  21.735  0.00  0.00    -0.343 OA
ATOM     22  C   UNL     1      -3.046  12.286  21.282  0.00  0.00    +0.198 C 
ENDBRANCH   7  21
ENDBRANCH   4   5
BRANCH   4  23
ATOM     23  O   UNL     1      -2.553  10.193  25.219  0.00  0.00    -0.387 OA
ATOM     24  H   UNL     1      -1.999   9.436  25.424  0.00  0.00    +0.210 HD
ENDBRANCH   4  23
ENDBRANCH   1   4
BRANCH   1  25
ATOM     25  C   UNL     1      -4.038   7.271  24.957  0.00  0.00    +0.141 C 
BRANCH  25  28
ATOM     26  C   UNL     1      -2.197   7.030  26.587  0.00  0.00    +0.401 C 
ATOM     27  O   UNL     1      -1.453   6.438  25.801  0.00  0.00    -0.226 OA
ATOM     28  N   UNL     1      -3.424   7.450  26.279  0.00  0.00    -0.279 N 
ATOM     29  H   UNL     1      -3.962   7.917  26.995  0.00  0.00    +0.152 HD
BRANCH  26  30
ATOM     30  O   UNL     1      -1.738   7.287  27.917  0.00  0.00    -0.444 OA
BRANCH  30  31
ATOM     31  C   UNL     1      -2.089   8.622  28.293  0.00  0.00    +0.292 C 
BRANCH  31  33
ATOM     32  N   UNL     1      -4.143   7.898  29.477  0.00  0.00    -0.131 NA
ATOM     33  C   UNL     1      -2.971   8.610  29.474  0.00  0.00    +0.120 A 
ATOM     34  C   UNL     1      -2.825   9.241  30.687  0.00  0.00    +0.139 A 
ATOM     35  N   UNL     1      -3.952   8.899  31.375  0.00  0.00    -0.226 N 
ATOM     36  N   UNL     1      -4.732   8.072  30.653  0.00  0.00    -0.063 NA
BRANCH  35  37
ATOM     37  C   UNL     1      -4.337   9.270  32.726  0.00  0.00    +0.305 C 
BRANCH  37  38
ATOM     38  O   UNL     1      -4.056  10.654  32.929  0.00  0.00    -0.353 OA
BRANCH  38  39
ATOM     39  C   UNL     1      -5.142  11.475  32.521  0.00  0.00    +0.197 C 
BRANCH  39  40
ATOM     40  C   UNL     1      -4.561  12.708  31.883  0.00  0.00    -0.022 A 
ATOM     41  C   UNL     1      -3.175  12.912  31.858  0.00  0.00    +0.006 A 
ATOM     42  C   UNL     1      -2.639  14.074  31.301  0.00  0.00    +0.000 A 
ATOM     43  C   UNL     1      -3.484  15.048  30.772  0.00  0.00    +0.000 A 
ATOM     44  C   UNL     1      -4.865  14.863  30.801  0.00  0.00    +0.000 A 
ATOM     45  C   UNL     1      -5.402  13.700  31.357  0.00  0.00    +0.006 A 
ENDBRANCH  39  40
ENDBRANCH  38  39
ENDBRANCH  37  38
ENDBRANCH  35  37
ENDBRANCH  31  33
ENDBRANCH  30  31
ENDBRANCH  26  30
ENDBRANCH  25  28
ENDBRANCH   1  25
TORSDOF 17
