REMARK VINA RESULT:    -4.882      6.508      9.253
REMARK INTER + INTRA:         -11.768
REMARK INTER:                  -9.512
REMARK INTRA:                  -2.256
REMARK UNBOUND:                -2.890
REMARK  Name = lig_assembled_73.pdb
REMARK  18 active torsions:
REMARK  status: ('A' for Active; 'I' for Inactive)
REMARK    1  A    between atoms: _2  and  _10
REMARK    2  A    between atoms: _3  and  _14
REMARK    3  A    between atoms: _5  and  _22
REMARK    4  A    between atoms: _7  and  _8
REMARK    5  A    between atoms: _7  and  _22
REMARK    6  A    between atoms: _13  and  _16
REMARK    7  A    between atoms: _18  and  _38
REMARK    8  A    between atoms: _20  and  _26
REMARK    9  A    between atoms: _21  and  _25
REMARK   10  A    between atoms: _25  and  _26
REMARK   11  A    between atoms: _28  and  _29
REMARK   12  A    between atoms: _30  and  _31
REMARK   13  A    between atoms: _32  and  _34
REMARK   14  A    between atoms: _34  and  _35
REMARK   15  A    between atoms: _34  and  _36
REMARK   16  A    between atoms: _36  and  _37
REMARK   17  A    between atoms: _36  and  _38
REMARK   18  A    between atoms: _39  and  _41
REMARK                            x       y       z     vdW  Elec       q    Type
REMARK                         _______ _______ _______ _____ _____    ______ ____
ROOT
ATOM      1  C   UNL     1      -5.943  11.046  16.273  0.00  0.00    +0.163 C 
ENDROOT
BRANCH   1   2
ATOM      2  O   UNL     1      -5.097  12.143  15.891  0.00  0.00    -0.388 OA
ATOM      3  H   UNL     1      -4.207  11.820  15.731  0.00  0.00    +0.210 HD
ENDBRANCH   1   2
BRANCH   1   4
ATOM      4  C   UNL     1      -5.211   9.703  16.109  0.00  0.00    +0.175 C 
BRANCH   4   5
ATOM      5  C   UNL     1      -4.160   9.751  14.991  0.00  0.00    +0.176 C 
ATOM      6  O   UNL     1      -4.770  10.378  13.830  0.00  0.00    -0.332 OA
ATOM      7  C   UNL     1      -3.877  10.606  12.690  0.00  0.00    +0.277 C 
ATOM      8  C   UNL     1      -3.187   9.285  12.270  0.00  0.00    +0.110 C 
ATOM      9  C   UNL     1      -2.551   8.566  13.477  0.00  0.00    +0.143 C 
ATOM     10  C   UNL     1      -3.567   8.383  14.605  0.00  0.00    +0.133 C 
BRANCH  10  11
ATOM     11  N   UNL     1      -2.926   7.775  15.782  0.00  0.00    -0.308 N 
ATOM     12  H   UNL     1      -2.237   8.322  16.279  0.00  0.00    +0.149 HD
ATOM     13  C   UNL     1      -3.195   6.548  16.236  0.00  0.00    +0.210 C 
ATOM     14  C   UNL     1      -4.231   5.730  15.441  0.00  0.00    +0.109 C 
ATOM     15  O   UNL     1      -2.654   6.071  17.234  0.00  0.00    -0.276 OA
ENDBRANCH  10  11
BRANCH   7  16
ATOM     16  C   UNL     1      -2.804  11.659  13.038  0.00  0.00    +0.414 C 
ATOM     17  O   UNL     1      -1.773  11.738  12.372  0.00  0.00    -0.240 OA
ATOM     18  O   UNL     1      -2.971  12.431  13.984  0.00  0.00    -0.240 OA
ENDBRANCH   7  16
BRANCH   9  19
ATOM     19  O   UNL     1      -2.061   7.286  13.073  0.00  0.00    -0.390 OA
ATOM     20  H   UNL     1      -2.053   6.693  13.828  0.00  0.00    +0.210 HD
ENDBRANCH   9  19
BRANCH   7  21
ATOM     21  O   UNL     1      -4.680  11.077  11.577  0.00  0.00    -0.343 OA
ATOM     22  C   UNL     1      -5.663  12.088  11.916  0.00  0.00    +0.198 C 
ENDBRANCH   7  21
ENDBRANCH   4   5
BRANCH   4  23
ATOM     23  O   UNL     1      -6.160   8.648  15.854  0.00  0.00    -0.387 OA
ATOM     24  H   UNL     1      -6.386   8.639  14.921  0.00  0.00    +0.210 HD
ENDBRANCH   4  23
ENDBRANCH   1   4
BRANCH   1  25
ATOM     25  C   UNL     1      -6.388  11.210  17.723  0.00  0.00    +0.141 C 
BRANCH  25  28
ATOM     26  C   UNL     1      -4.758  10.543  19.457  0.00  0.00    +0.401 C 
ATOM     27  O   UNL     1      -5.209   9.402  19.575  0.00  0.00    -0.226 OA
ATOM     28  N   UNL     1      -5.251  11.457  18.619  0.00  0.00    -0.279 N 
ATOM     29  H   UNL     1      -4.819  12.369  18.600  0.00  0.00    +0.152 HD
BRANCH  26  30
ATOM     30  O   UNL     1      -3.641  10.935  20.258  0.00  0.00    -0.444 OA
BRANCH  30  31
ATOM     31  C   UNL     1      -3.777  12.310  20.629  0.00  0.00    +0.292 C 
BRANCH  31  33
ATOM     32  N   UNL     1      -3.752  13.686  22.685  0.00  0.00    -0.131 NA
ATOM     33  C   UNL     1      -3.676  12.459  22.093  0.00  0.00    +0.121 A 
ATOM     34  C   UNL     1      -3.504  11.501  23.064  0.00  0.00    +0.143 A 
ATOM     35  N   UNL     1      -3.489  12.197  24.251  0.00  0.00    -0.220 N 
ATOM     36  N   UNL     1      -3.638  13.519  23.996  0.00  0.00    -0.060 NA
BRANCH  35  37
ATOM     37  C   UNL     1      -3.340  11.701  25.572  0.00  0.00    +0.074 A 
ATOM     38  C   UNL     1      -3.850  12.438  26.656  0.00  0.00    +0.032 A 
ATOM     39  C   UNL     1      -3.706  11.973  27.970  0.00  0.00    +0.054 A 
ATOM     40  C   UNL     1      -3.050  10.768  28.214  0.00  0.00    +0.195 A 
ATOM     41  C   UNL     1      -2.548  10.041  27.136  0.00  0.00    +0.316 A 
ATOM     42  C   UNL     1      -2.689  10.485  25.814  0.00  0.00    +0.116 A 
BRANCH  41  43
ATOM     43  N   UNL     1      -1.853   8.789  27.358  0.00  0.00    +0.083 N 
ATOM     44  O   UNL     1      -1.105   8.716  28.342  0.00  0.00    +0.042 OA
ATOM     45  O   UNL     1      -1.989   7.915  26.489  0.00  0.00    -0.576 OA
ENDBRANCH  41  43
BRANCH  40  46
ATOM     46  O   UNL     1      -2.930  10.305  29.490  0.00  0.00    -0.501 OA
ATOM     47  H   UNL     1      -2.167   9.705  29.557  0.00  0.00    +0.292 HD
ENDBRANCH  40  46
ENDBRANCH  35  37
ENDBRANCH  31  33
ENDBRANCH  30  31
ENDBRANCH  26  30
ENDBRANCH  25  28
ENDBRANCH   1  25
TORSDOF 16
