REMARK VINA RESULT:    -4.890      5.061     11.518
REMARK INTER + INTRA:         -12.908
REMARK INTER:                  -9.447
REMARK INTRA:                  -3.461
REMARK UNBOUND:                -3.302
REMARK  Name = lig_assembled_84.pdb
REMARK  21 active torsions:
REMARK  status: ('A' for Active; 'I' for Inactive)
REMARK    1  A    between atoms: _2  and  _11
REMARK    2  A    between atoms: _3  and  _14
REMARK    3  A    between atoms: _4  and  _17
REMARK    4  A    between atoms: _6  and  _28
REMARK    5  A    between atoms: _8  and  _9
REMARK    6  A    between atoms: _8  and  _28
REMARK    7  A    between atoms: _11  and  _12
REMARK    8  A    between atoms: _12  and  _13
REMARK    9  A    between atoms: _12  and  _14
REMARK   10  A    between atoms: _24  and  _44
REMARK   11  A    between atoms: _26  and  _32
REMARK   12  A    between atoms: _27  and  _31
REMARK   13  A    between atoms: _31  and  _32
REMARK   14  A    between atoms: _34  and  _35
REMARK   15  A    between atoms: _36  and  _37
REMARK   16  A    between atoms: _38  and  _40
REMARK   17  A    between atoms: _40  and  _41
REMARK   18  A    between atoms: _40  and  _42
REMARK   19  A    between atoms: _42  and  _43
REMARK   20  A    between atoms: _42  and  _44
REMARK   21  A    between atoms: _45  and  _47
REMARK                            x       y       z     vdW  Elec       q    Type
REMARK                         _______ _______ _______ _____ _____    ______ ____
ROOT
ATOM      1  C   UNL     1      -3.860  12.984  23.533  0.00  0.00    +0.401 C 
ATOM      2  O   UNL     1      -2.852  13.237  24.198  0.00  0.00    -0.226 OA
ATOM      3  N   UNL     1      -4.893  12.274  23.987  0.00  0.00    -0.279 N 
ATOM      4  H   UNL     1      -5.679  12.128  23.370  0.00  0.00    +0.152 HD
ENDROOT
BRANCH   1   5
ATOM      5  O   UNL     1      -3.950  13.476  22.194  0.00  0.00    -0.444 OA
BRANCH   5   6
ATOM      6  C   UNL     1      -3.200  12.627  21.321  0.00  0.00    +0.292 C 
BRANCH   6   8
ATOM      7  N   UNL     1      -3.711  10.211  21.539  0.00  0.00    -0.131 NA
ATOM      8  C   UNL     1      -3.979  11.426  20.964  0.00  0.00    +0.120 A 
ATOM      9  C   UNL     1      -5.000  11.276  20.052  0.00  0.00    +0.137 A 
ATOM     10  N   UNL     1      -5.263   9.939  20.070  0.00  0.00    -0.251 N 
ATOM     11  N   UNL     1      -4.504   9.305  20.981  0.00  0.00    -0.065 NA
BRANCH  10  12
ATOM     12  C   UNL     1      -6.112   9.189  19.165  0.00  0.00    +0.149 C 
BRANCH  12  13
ATOM     13  C   UNL     1      -5.381   8.619  17.937  0.00  0.00    +0.021 C 
ATOM     14  C   UNL     1      -5.343   7.084  17.975  0.00  0.00    +0.010 C 
BRANCH  13  15
ATOM     15  C   UNL     1      -6.060   9.069  16.621  0.00  0.00    +0.089 C 
BRANCH  15  16
ATOM     16  N   UNL     1      -5.149   9.446  15.532  0.00  0.00    -0.299 NA
ATOM     17  C   UNL     1      -4.018  10.249  16.070  0.00  0.00    +0.103 C 
ATOM     18  C   UNL     1      -2.990  10.594  14.973  0.00  0.00    +0.120 C 
ATOM     19  N   UNL     1      -3.652  11.333  13.891  0.00  0.00    -0.327 N 
ATOM     20  C   UNL     1      -4.824  10.652  13.322  0.00  0.00    +0.120 C 
ATOM     21  C   UNL     1      -5.803  10.234  14.457  0.00  0.00    +0.103 C 
BRANCH  19  22
ATOM     22  C   UNL     1      -3.179  12.534  13.416  0.00  0.00    +0.030 A 
ATOM     23  C   UNL     1      -3.674  13.759  13.901  0.00  0.00    +0.024 A 
ATOM     24  C   UNL     1      -3.223  14.990  13.411  0.00  0.00    +0.022 A 
ATOM     25  C   UNL     1      -2.254  15.020  12.422  0.00  0.00    +0.041 A 
ATOM     26 CL   UNL     1      -1.699  16.530  11.811  0.00  0.00    -0.084 Cl
ATOM     27  C   UNL     1      -1.737  13.833  11.918  0.00  0.00    +0.022 A 
ATOM     28  C   UNL     1      -2.201  12.606  12.412  0.00  0.00    +0.024 A 
ENDBRANCH  19  22
ENDBRANCH  15  16
ENDBRANCH  13  15
ENDBRANCH  12  13
ENDBRANCH  10  12
ENDBRANCH   6   8
ENDBRANCH   5   6
ENDBRANCH   1   5
BRANCH   3  29
ATOM     29  C   UNL     1      -4.952  11.691  25.334  0.00  0.00    +0.141 C 
BRANCH  29  30
ATOM     30  C   UNL     1      -4.731  10.182  25.311  0.00  0.00    +0.163 C 
BRANCH  30  31
ATOM     31  O   UNL     1      -5.223   9.632  24.078  0.00  0.00    -0.388 OA
ATOM     32  H   UNL     1      -5.135  10.284  23.378  0.00  0.00    +0.210 HD
ENDBRANCH  30  31
BRANCH  30  33
ATOM     33  C   UNL     1      -3.233   9.879  25.489  0.00  0.00    +0.175 C 
BRANCH  33  34
ATOM     34  C   UNL     1      -2.995   8.632  26.353  0.00  0.00    +0.176 C 
ATOM     35  O   UNL     1      -3.431   7.472  25.592  0.00  0.00    -0.332 OA
ATOM     36  C   UNL     1      -3.181   6.171  26.221  0.00  0.00    +0.277 C 
ATOM     37  C   UNL     1      -3.798   6.128  27.640  0.00  0.00    +0.110 C 
ATOM     38  C   UNL     1      -3.388   7.359  28.477  0.00  0.00    +0.143 C 
ATOM     39  C   UNL     1      -3.690   8.657  27.727  0.00  0.00    +0.133 C 
BRANCH  39  40
ATOM     40  N   UNL     1      -3.216   9.818  28.496  0.00  0.00    -0.308 N 
ATOM     41  H   UNL     1      -2.218   9.952  28.581  0.00  0.00    +0.149 HD
ATOM     42  C   UNL     1      -4.018  10.707  29.089  0.00  0.00    +0.210 C 
ATOM     43  C   UNL     1      -5.533  10.460  28.963  0.00  0.00    +0.109 C 
ATOM     44  O   UNL     1      -3.593  11.678  29.715  0.00  0.00    -0.276 OA
ENDBRANCH  39  40
BRANCH  36  45
ATOM     45  C   UNL     1      -1.667   5.888  26.308  0.00  0.00    +0.414 C 
ATOM     46  O   UNL     1      -1.183   5.412  27.335  0.00  0.00    -0.240 OA
ATOM     47  O   UNL     1      -0.929   6.135  25.353  0.00  0.00    -0.240 OA
ENDBRANCH  36  45
BRANCH  36  48
ATOM     48  O   UNL     1      -3.822   5.151  25.412  0.00  0.00    -0.343 OA
ATOM     49  C   UNL     1      -4.414   5.631  24.178  0.00  0.00    +0.198 C 
ENDBRANCH  36  48
BRANCH  38  50
ATOM     50  O   UNL     1      -4.097   7.356  29.717  0.00  0.00    -0.390 OA
ATOM     51  H   UNL     1      -3.544   7.738  30.403  0.00  0.00    +0.210 HD
ENDBRANCH  38  50
ENDBRANCH  33  34
BRANCH  33  52
ATOM     52  O   UNL     1      -2.562  11.018  26.065  0.00  0.00    -0.387 OA
ATOM     53  H   UNL     1      -1.617  10.942  25.915  0.00  0.00    +0.210 HD
ENDBRANCH  33  52
ENDBRANCH  30  33
ENDBRANCH  29  30
ENDBRANCH   3  29
TORSDOF 18
