REMARK VINA RESULT:    -4.834      2.550      5.116
REMARK INTER + INTRA:         -12.983
REMARK INTER:                  -8.371
REMARK INTRA:                  -4.612
REMARK UNBOUND:                -3.062
REMARK  Name = lig_assembled_74.pdb
REMARK  24 active torsions:
REMARK  status: ('A' for Active; 'I' for Inactive)
REMARK    1  A    between atoms: _2  and  _9
REMARK    2  A    between atoms: _4  and  _22
REMARK    3  A    between atoms: _5  and  _14
REMARK    4  A    between atoms: _6  and  _7
REMARK    5  A    between atoms: _6  and  _22
REMARK    6  A    between atoms: _9  and  _10
REMARK    7  A    between atoms: _10  and  _11
REMARK    8  A    between atoms: _10  and  _13
REMARK    9  A    between atoms: _11  and  _12
REMARK   10  A    between atoms: _12  and  _16
REMARK   11  A    between atoms: _13  and  _14
REMARK   12  A    between atoms: _14  and  _15
REMARK   13  A    between atoms: _18  and  _38
REMARK   14  A    between atoms: _20  and  _26
REMARK   15  A    between atoms: _21  and  _25
REMARK   16  A    between atoms: _25  and  _26
REMARK   17  A    between atoms: _28  and  _29
REMARK   18  A    between atoms: _30  and  _31
REMARK   19  A    between atoms: _32  and  _34
REMARK   20  A    between atoms: _34  and  _35
REMARK   21  A    between atoms: _34  and  _36
REMARK   22  A    between atoms: _36  and  _37
REMARK   23  A    between atoms: _36  and  _38
REMARK   24  A    between atoms: _39  and  _41
REMARK                            x       y       z     vdW  Elec       q    Type
REMARK                         _______ _______ _______ _____ _____    ______ ____
ROOT
ATOM      1  C   UNL     1      -2.983  10.173  30.553  0.00  0.00    +0.163 C 
ENDROOT
BRANCH   1   2
ATOM      2  O   UNL     1      -2.881  11.162  29.515  0.00  0.00    -0.388 OA
ATOM      3  H   UNL     1      -1.956  11.340  29.332  0.00  0.00    +0.210 HD
ENDBRANCH   1   2
BRANCH   1   4
ATOM      4  C   UNL     1      -4.186  10.459  31.469  0.00  0.00    +0.175 C 
BRANCH   4   5
ATOM      5  C   UNL     1      -4.560  11.948  31.483  0.00  0.00    +0.176 C 
ATOM      6  O   UNL     1      -3.824  12.583  32.565  0.00  0.00    -0.332 OA
ATOM      7  C   UNL     1      -3.976  14.038  32.667  0.00  0.00    +0.277 C 
ATOM      8  C   UNL     1      -5.473  14.421  32.757  0.00  0.00    +0.110 C 
ATOM      9  C   UNL     1      -6.302  13.744  31.645  0.00  0.00    +0.143 C 
ATOM     10  C   UNL     1      -6.067  12.233  31.628  0.00  0.00    +0.133 C 
BRANCH  10  11
ATOM     11  N   UNL     1      -6.794  11.611  30.510  0.00  0.00    -0.308 N 
ATOM     12  H   UNL     1      -6.552  11.898  29.572  0.00  0.00    +0.149 HD
ATOM     13  C   UNL     1      -7.752  10.691  30.654  0.00  0.00    +0.210 C 
ATOM     14  C   UNL     1      -8.115  10.294  32.098  0.00  0.00    +0.109 C 
ATOM     15  O   UNL     1      -8.334  10.177  29.699  0.00  0.00    -0.276 OA
ENDBRANCH  10  11
BRANCH   7  16
ATOM     16  C   UNL     1      -3.336  14.741  31.451  0.00  0.00    +0.414 C 
ATOM     17  O   UNL     1      -3.506  15.946  31.271  0.00  0.00    -0.240 OA
ATOM     18  O   UNL     1      -2.651  14.103  30.651  0.00  0.00    -0.240 OA
ENDBRANCH   7  16
BRANCH   9  19
ATOM     19  O   UNL     1      -7.691  14.001  31.855  0.00  0.00    -0.390 OA
ATOM     20  H   UNL     1      -8.033  13.395  32.517  0.00  0.00    +0.210 HD
ENDBRANCH   9  19
BRANCH   7  21
ATOM     21  O   UNL     1      -3.318  14.474  33.884  0.00  0.00    -0.343 OA
ATOM     22  C   UNL     1      -1.942  14.041  34.025  0.00  0.00    +0.198 C 
ENDBRANCH   7  21
ENDBRANCH   4   5
BRANCH   4  23
ATOM     23  O   UNL     1      -3.910  10.003  32.808  0.00  0.00    -0.387 OA
ATOM     24  H   UNL     1      -4.736   9.894  33.286  0.00  0.00    +0.210 HD
ENDBRANCH   4  23
ENDBRANCH   1   4
BRANCH   1  25
ATOM     25  C   UNL     1      -3.129   8.785  29.939  0.00  0.00    +0.141 C 
BRANCH  25  28
ATOM     26  C   UNL     1      -3.859   8.453  27.602  0.00  0.00    +0.401 C 
ATOM     27  O   UNL     1      -2.733   8.164  27.191  0.00  0.00    -0.226 OA
ATOM     28  N   UNL     1      -4.135   8.762  28.869  0.00  0.00    -0.279 N 
ATOM     29  H   UNL     1      -5.089   8.994  29.107  0.00  0.00    +0.152 HD
BRANCH  26  30
ATOM     30  O   UNL     1      -4.952   8.467  26.679  0.00  0.00    -0.444 OA
BRANCH  30  31
ATOM     31  C   UNL     1      -6.042   9.203  27.240  0.00  0.00    +0.292 C 
BRANCH  31  33
ATOM     32  N   UNL     1      -5.269  11.455  27.945  0.00  0.00    -0.131 NA
ATOM     33  C   UNL     1      -5.866  10.651  27.011  0.00  0.00    +0.120 A 
ATOM     34  C   UNL     1      -6.152  11.401  25.890  0.00  0.00    +0.137 A 
ATOM     35  N   UNL     1      -5.540  12.596  26.140  0.00  0.00    -0.251 N 
ATOM     36  N   UNL     1      -5.097  12.656  27.409  0.00  0.00    -0.065 NA
BRANCH  35  37
ATOM     37  C   UNL     1      -5.068  13.554  25.159  0.00  0.00    +0.149 C 
BRANCH  37  38
ATOM     38  C   UNL     1      -4.036  13.016  24.145  0.00  0.00    +0.021 C 
BRANCH  38  39
ATOM     39  C   UNL     1      -2.682  12.646  24.785  0.00  0.00    +0.125 C 
BRANCH  39  40
ATOM     40  C   UNL     1      -2.605  11.240  25.342  0.00  0.00    +0.305 C 
ATOM     41  O   UNL     1      -2.682  10.219  24.678  0.00  0.00    -0.251 OA
BRANCH  40  42
ATOM     42  O   UNL     1      -2.373  11.212  26.668  0.00  0.00    -0.481 OA
ATOM     43  H   UNL     1      -1.693  11.832  26.988  0.00  0.00    +0.295 HD
ENDBRANCH  40  42
ENDBRANCH  39  40
ENDBRANCH  38  39
BRANCH  38  44
ATOM     44  C   UNL     1      -3.899  14.029  22.971  0.00  0.00    +0.009 C 
BRANCH  44  45
ATOM     45  C   UNL     1      -4.193  13.472  21.562  0.00  0.00    -0.017 C 
ATOM     46  C   UNL     1      -3.239  12.340  21.176  0.00  0.00    +0.007 C 
ATOM     47  C   UNL     1      -5.636  12.962  21.475  0.00  0.00    +0.007 C 
ENDBRANCH  44  45
ENDBRANCH  38  44
ENDBRANCH  37  38
ENDBRANCH  35  37
ENDBRANCH  31  33
ENDBRANCH  30  31
ENDBRANCH  26  30
ENDBRANCH  25  28
ENDBRANCH   1  25
TORSDOF 20
