REMARK VINA RESULT:    -5.258      1.644      1.933
REMARK INTER + INTRA:         -12.613
REMARK INTER:                 -10.021
REMARK INTRA:                  -2.591
REMARK UNBOUND:                -2.590
REMARK  Name = lig_assembled_29.pdb
REMARK  21 active torsions:
REMARK  status: ('A' for Active; 'I' for Inactive)
REMARK    1  A    between atoms: _2  and  _9
REMARK    2  A    between atoms: _4  and  _23
REMARK    3  A    between atoms: _6  and  _7
REMARK    4  A    between atoms: _6  and  _23
REMARK    5  A    between atoms: _9  and  _10
REMARK    6  A    between atoms: _12  and  _18
REMARK    7  A    between atoms: _13  and  _18
REMARK    8  A    between atoms: _14  and  _17
REMARK    9  A    between atoms: _15  and  _17
REMARK   10  A    between atoms: _19  and  _39
REMARK   11  A    between atoms: _21  and  _27
REMARK   12  A    between atoms: _22  and  _26
REMARK   13  A    between atoms: _26  and  _27
REMARK   14  A    between atoms: _29  and  _30
REMARK   15  A    between atoms: _31  and  _32
REMARK   16  A    between atoms: _33  and  _35
REMARK   17  A    between atoms: _35  and  _36
REMARK   18  A    between atoms: _35  and  _37
REMARK   19  A    between atoms: _37  and  _38
REMARK   20  A    between atoms: _37  and  _39
REMARK   21  A    between atoms: _40  and  _42
REMARK                            x       y       z     vdW  Elec       q    Type
REMARK                         _______ _______ _______ _____ _____    ______ ____
ROOT
ATOM      1  C   UNL     1      -6.123  12.087  25.708  0.00  0.00    +0.163 C 
ENDROOT
BRANCH   1   2
ATOM      2  O   UNL     1      -5.996  11.090  24.681  0.00  0.00    -0.388 OA
ATOM      3  H   UNL     1      -6.243  10.232  25.035  0.00  0.00    +0.210 HD
ENDBRANCH   1   2
BRANCH   1   4
ATOM      4  C   UNL     1      -6.080  11.445  27.106  0.00  0.00    +0.175 C 
BRANCH   4   5
ATOM      5  C   UNL     1      -4.712  10.815  27.410  0.00  0.00    +0.176 C 
ATOM      6  O   UNL     1      -4.576   9.624  26.587  0.00  0.00    -0.332 OA
ATOM      7  C   UNL     1      -3.279   8.944  26.666  0.00  0.00    +0.277 C 
ATOM      8  C   UNL     1      -2.935   8.606  28.137  0.00  0.00    +0.110 C 
ATOM      9  C   UNL     1      -3.097   9.834  29.057  0.00  0.00    +0.143 C 
ATOM     10  C   UNL     1      -4.479  10.465  28.892  0.00  0.00    +0.133 C 
BRANCH  10  11
ATOM     11  N   UNL     1      -4.590  11.685  29.708  0.00  0.00    -0.308 N 
ATOM     12  H   UNL     1      -3.988  12.463  29.478  0.00  0.00    +0.149 HD
ATOM     13  C   UNL     1      -5.434  11.830  30.733  0.00  0.00    +0.210 C 
ATOM     14  C   UNL     1      -6.320  10.617  31.075  0.00  0.00    +0.109 C 
ATOM     15  O   UNL     1      -5.516  12.869  31.390  0.00  0.00    -0.276 OA
ENDBRANCH  10  11
BRANCH   7  16
ATOM     16  C   UNL     1      -2.163   9.823  26.064  0.00  0.00    +0.414 C 
ATOM     17  O   UNL     1      -1.014   9.749  26.498  0.00  0.00    -0.240 OA
ATOM     18  O   UNL     1      -2.411  10.605  25.146  0.00  0.00    -0.240 OA
ENDBRANCH   7  16
BRANCH   7  19
ATOM     19  O   UNL     1      -3.378   7.703  25.922  0.00  0.00    -0.343 OA
ATOM     20  C   UNL     1      -4.428   7.669  24.922  0.00  0.00    +0.198 C 
ENDBRANCH   7  19
BRANCH   9  21
ATOM     21  O   UNL     1      -2.917   9.443  30.419  0.00  0.00    -0.390 OA
ATOM     22  H   UNL     1      -3.701   9.673  30.924  0.00  0.00    +0.210 HD
ENDBRANCH   9  21
ENDBRANCH   4   5
BRANCH   4  23
ATOM     23  O   UNL     1      -7.121  10.457  27.232  0.00  0.00    -0.387 OA
ATOM     24  H   UNL     1      -7.408  10.181  26.358  0.00  0.00    +0.210 HD
ENDBRANCH   4  23
ENDBRANCH   1   4
BRANCH   1  25
ATOM     25  C   UNL     1      -5.001  13.111  25.583  0.00  0.00    +0.141 C 
BRANCH  25  28
ATOM     26  C   UNL     1      -4.330  13.762  23.295  0.00  0.00    +0.401 C 
ATOM     27  O   UNL     1      -5.071  14.747  23.257  0.00  0.00    -0.226 OA
ATOM     28  N   UNL     1      -4.238  12.938  24.340  0.00  0.00    -0.279 N 
ATOM     29  H   UNL     1      -3.609  12.151  24.273  0.00  0.00    +0.152 HD
BRANCH  26  30
ATOM     30  O   UNL     1      -3.513  13.462  22.160  0.00  0.00    -0.444 OA
BRANCH  30  31
ATOM     31  C   UNL     1      -3.143  12.081  22.189  0.00  0.00    +0.292 C 
BRANCH  31  33
ATOM     32  N   UNL     1      -4.055  10.013  21.169  0.00  0.00    -0.131 NA
ATOM     33  C   UNL     1      -3.783  11.353  21.078  0.00  0.00    +0.120 A 
ATOM     34  C   UNL     1      -4.221  11.819  19.859  0.00  0.00    +0.137 A 
ATOM     35  N   UNL     1      -4.833  10.737  19.296  0.00  0.00    -0.247 N 
ATOM     36  N   UNL     1      -4.690   9.642  20.064  0.00  0.00    -0.065 NA
BRANCH  35  37
ATOM     37  C   UNL     1      -5.606  10.684  18.070  0.00  0.00    +0.180 C 
BRANCH  37  38
ATOM     38  C   UNL     1      -4.771  11.123  16.888  0.00  0.00    -0.022 A 
ATOM     39  C   UNL     1      -3.802  10.259  16.348  0.00  0.00    +0.054 A 
ATOM     40  C   UNL     1      -3.075  10.623  15.205  0.00  0.00    +0.162 A 
ATOM     41  C   UNL     1      -3.314  11.871  14.597  0.00  0.00    +0.162 A 
ATOM     42  C   UNL     1      -4.277  12.728  15.136  0.00  0.00    +0.050 A 
ATOM     43  C   UNL     1      -4.998  12.358  16.274  0.00  0.00    +0.009 A 
BRANCH  40  44
ATOM     44  O   UNL     1      -2.129   9.829  14.605  0.00  0.00    -0.491 OA
ATOM     45  C   UNL     1      -2.164   8.435  14.876  0.00  0.00    +0.277 C 
ENDBRANCH  40  44
BRANCH  41  46
ATOM     46  O   UNL     1      -2.558  12.157  13.486  0.00  0.00    -0.491 OA
ATOM     47  C   UNL     1      -3.217  12.180  12.227  0.00  0.00    +0.277 C 
ENDBRANCH  41  46
ENDBRANCH  37  38
ENDBRANCH  35  37
ENDBRANCH  31  33
ENDBRANCH  30  31
ENDBRANCH  26  30
ENDBRANCH  25  28
ENDBRANCH   1  25
TORSDOF 17
