REMARK VINA RESULT:    -5.731      5.711     11.028
REMARK INTER + INTRA:         -12.978
REMARK INTER:                  -9.846
REMARK INTRA:                  -3.132
REMARK UNBOUND:                -2.389
REMARK  Name = lig_assembled_92.pdb
REMARK  18 active torsions:
REMARK  status: ('A' for Active; 'I' for Inactive)
REMARK    1  A    between atoms: _2  and  _11
REMARK    2  A    between atoms: _3  and  _46
REMARK    3  A    between atoms: _6  and  _25
REMARK    4  A    between atoms: _8  and  _9
REMARK    5  A    between atoms: _8  and  _25
REMARK    6  A    between atoms: _14  and  _46
REMARK    7  A    between atoms: _21  and  _41
REMARK    8  A    between atoms: _23  and  _29
REMARK    9  A    between atoms: _24  and  _28
REMARK   10  A    between atoms: _28  and  _29
REMARK   11  A    between atoms: _31  and  _32
REMARK   12  A    between atoms: _33  and  _34
REMARK   13  A    between atoms: _35  and  _37
REMARK   14  A    between atoms: _37  and  _38
REMARK   15  A    between atoms: _37  and  _39
REMARK   16  A    between atoms: _39  and  _40
REMARK   17  A    between atoms: _39  and  _41
REMARK   18  A    between atoms: _42  and  _44
REMARK                            x       y       z     vdW  Elec       q    Type
REMARK                         _______ _______ _______ _____ _____    ______ ____
ROOT
ATOM      1  C   UNL     1      -6.088   6.738  20.419  0.00  0.00    +0.401 C 
ATOM      2  O   UNL     1      -5.133   6.172  19.881  0.00  0.00    -0.226 OA
ATOM      3  N   UNL     1      -6.257   6.822  21.739  0.00  0.00    -0.279 N 
ATOM      4  H   UNL     1      -7.068   7.315  22.086  0.00  0.00    +0.152 HD
ENDROOT
BRANCH   3   5
ATOM      5  C   UNL     1      -5.332   6.237  22.718  0.00  0.00    +0.141 C 
BRANCH   5   6
ATOM      6  C   UNL     1      -5.086   7.172  23.897  0.00  0.00    +0.163 C 
BRANCH   6   7
ATOM      7  O   UNL     1      -3.867   6.809  24.566  0.00  0.00    -0.388 OA
ATOM      8  H   UNL     1      -3.689   5.876  24.425  0.00  0.00    +0.210 HD
ENDBRANCH   6   7
BRANCH   6   9
ATOM      9  C   UNL     1      -5.027   8.626  23.397  0.00  0.00    +0.175 C 
BRANCH   9  10
ATOM     10  C   UNL     1      -3.962   9.449  24.136  0.00  0.00    +0.176 C 
ATOM     11  O   UNL     1      -4.298   9.447  25.551  0.00  0.00    -0.332 OA
ATOM     12  C   UNL     1      -3.327  10.100  26.434  0.00  0.00    +0.277 C 
ATOM     13  C   UNL     1      -3.057  11.550  25.962  0.00  0.00    +0.110 C 
ATOM     14  C   UNL     1      -2.726  11.607  24.456  0.00  0.00    +0.143 C 
ATOM     15  C   UNL     1      -3.799  10.895  23.632  0.00  0.00    +0.133 C 
BRANCH  15  16
ATOM     16  N   UNL     1      -3.430  10.880  22.208  0.00  0.00    -0.308 N 
ATOM     17  H   UNL     1      -2.626  10.332  21.935  0.00  0.00    +0.149 HD
ATOM     18  C   UNL     1      -4.086  11.543  21.252  0.00  0.00    +0.210 C 
ATOM     19  C   UNL     1      -5.291  12.390  21.704  0.00  0.00    +0.109 C 
ATOM     20  O   UNL     1      -3.762  11.500  20.065  0.00  0.00    -0.276 OA
ENDBRANCH  15  16
BRANCH  12  21
ATOM     21  C   UNL     1      -2.001   9.313  26.466  0.00  0.00    +0.414 C 
ATOM     22  O   UNL     1      -0.925   9.911  26.497  0.00  0.00    -0.240 OA
ATOM     23  O   UNL     1      -2.005   8.082  26.462  0.00  0.00    -0.240 OA
ENDBRANCH  12  21
BRANCH  14  24
ATOM     24  O   UNL     1      -2.635  12.968  24.034  0.00  0.00    -0.390 OA
ATOM     25  H   UNL     1      -3.449  13.223  23.593  0.00  0.00    +0.210 HD
ENDBRANCH  14  24
BRANCH  12  26
ATOM     26  O   UNL     1      -3.897  10.152  27.767  0.00  0.00    -0.343 OA
ATOM     27  C   UNL     1      -4.019  11.482  28.330  0.00  0.00    +0.198 C 
ENDBRANCH  12  26
ENDBRANCH   9  10
BRANCH   9  28
ATOM     28  O   UNL     1      -6.319   9.250  23.531  0.00  0.00    -0.387 OA
ATOM     29  H   UNL     1      -6.218  10.111  23.945  0.00  0.00    +0.210 HD
ENDBRANCH   9  28
ENDBRANCH   6   9
ENDBRANCH   5   6
ENDBRANCH   3   5
BRANCH   1  30
ATOM     30  O   UNL     1      -7.084   7.352  19.597  0.00  0.00    -0.444 OA
BRANCH  30  31
ATOM     31  C   UNL     1      -7.396   8.649  20.114  0.00  0.00    +0.292 C 
BRANCH  31  33
ATOM     32  N   UNL     1      -7.397  10.985  19.286  0.00  0.00    -0.131 NA
ATOM     33  C   UNL     1      -6.966   9.696  19.168  0.00  0.00    +0.121 A 
ATOM     34  C   UNL     1      -6.120   9.603  18.088  0.00  0.00    +0.143 A 
ATOM     35  N   UNL     1      -6.038  10.882  17.587  0.00  0.00    -0.220 N 
ATOM     36  N   UNL     1      -6.834  11.699  18.318  0.00  0.00    -0.060 NA
BRANCH  35  37
ATOM     37  C   UNL     1      -5.246  11.357  16.512  0.00  0.00    +0.067 A 
ATOM     38  C   UNL     1      -5.753  12.324  15.630  0.00  0.00    +0.030 A 
ATOM     39  C   UNL     1      -4.994  12.746  14.539  0.00  0.00    +0.031 A 
ATOM     40  C   UNL     1      -3.721  12.212  14.331  0.00  0.00    +0.109 A 
ATOM     41  C   UNL     1      -3.198  11.255  15.205  0.00  0.00    +0.031 A 
ATOM     42  C   UNL     1      -3.958  10.835  16.303  0.00  0.00    +0.030 A 
BRANCH  40  43
ATOM     43  S   UNL     1      -2.849  12.657  12.852  0.00  0.00    +0.074 S 
ATOM     44  O   UNL     1      -1.958  11.561  12.524  0.00  0.00    -0.150 OA
ATOM     45  O   UNL     1      -3.804  13.131  11.879  0.00  0.00    -0.150 OA
BRANCH  43  46
ATOM     46  N   UNL     1      -1.836  13.911  13.355  0.00  0.00    -0.194 N 
ATOM     47  H   UNL     1      -0.885  13.559  13.268  0.00  0.00    +0.176 HD
ATOM     48  C   UNL     1      -2.064  15.101  12.634  0.00  0.00    +0.177 A 
ATOM     49  S   UNL     1      -1.105  15.569  11.298  0.00  0.00    -0.059 S 
ATOM     50  C   UNL     1      -1.981  17.042  11.217  0.00  0.00    +0.068 A 
ATOM     51  C   UNL     1      -2.882  17.100  12.259  0.00  0.00    +0.120 A 
ATOM     52  N   UNL     1      -2.951  15.969  13.052  0.00  0.00    -0.232 NA
ENDBRANCH  43  46
ENDBRANCH  40  43
ENDBRANCH  35  37
ENDBRANCH  31  33
ENDBRANCH  30  31
ENDBRANCH   1  30
TORSDOF 16
