REMARK VINA RESULT:    -4.804      2.920      7.430
REMARK INTER + INTRA:         -12.275
REMARK INTER:                  -9.317
REMARK INTRA:                  -2.958
REMARK UNBOUND:                -3.679
REMARK  Name = lig_assembled_0.pdb
REMARK  17 active torsions:
REMARK  status: ('A' for Active; 'I' for Inactive)
REMARK    1  A    between atoms: _2  and  _10
REMARK    2  A    between atoms: _5  and  _21
REMARK    3  A    between atoms: _7  and  _8
REMARK    4  A    between atoms: _7  and  _21
REMARK    5  A    between atoms: _11  and  _12
REMARK    6  A    between atoms: _17  and  _37
REMARK    7  A    between atoms: _19  and  _25
REMARK    8  A    between atoms: _20  and  _24
REMARK    9  A    between atoms: _24  and  _25
REMARK   10  A    between atoms: _27  and  _28
REMARK   11  A    between atoms: _29  and  _30
REMARK   12  A    between atoms: _31  and  _33
REMARK   13  A    between atoms: _33  and  _34
REMARK   14  A    between atoms: _33  and  _35
REMARK   15  A    between atoms: _35  and  _36
REMARK   16  A    between atoms: _35  and  _37
REMARK   17  A    between atoms: _38  and  _40
REMARK                            x       y       z     vdW  Elec       q    Type
REMARK                         _______ _______ _______ _____ _____    ______ ____
ROOT
ATOM      1  C   UNL     1      -2.926  10.485  28.680  0.00  0.00    +0.163 C 
ENDROOT
BRANCH   1   2
ATOM      2  O   UNL     1      -3.357  10.853  27.360  0.00  0.00    -0.388 OA
ATOM      3  H   UNL     1      -3.583  11.786  27.345  0.00  0.00    +0.210 HD
ENDBRANCH   1   2
BRANCH   1   4
ATOM      4  C   UNL     1      -2.385   9.059  28.674  0.00  0.00    +0.141 C 
BRANCH   4   7
ATOM      5  C   UNL     1      -2.824   7.404  26.892  0.00  0.00    +0.401 C 
ATOM      6  O   UNL     1      -1.665   7.409  26.472  0.00  0.00    -0.226 OA
ATOM      7  N   UNL     1      -3.250   8.148  27.913  0.00  0.00    -0.279 N 
ATOM      8  H   UNL     1      -4.223   8.083  28.178  0.00  0.00    +0.152 HD
BRANCH   5   9
ATOM      9  O   UNL     1      -3.789   6.560  26.259  0.00  0.00    -0.444 OA
BRANCH   9  10
ATOM     10  C   UNL     1      -4.868   7.356  25.761  0.00  0.00    +0.292 C 
BRANCH  10  12
ATOM     11  N   UNL     1      -3.718   7.629  23.596  0.00  0.00    -0.131 NA
ATOM     12  C   UNL     1      -4.415   8.183  24.627  0.00  0.00    +0.121 A 
ATOM     13  C   UNL     1      -4.597   9.525  24.379  0.00  0.00    +0.143 A 
ATOM     14  N   UNL     1      -3.905   9.773  23.216  0.00  0.00    -0.219 N 
ATOM     15  N   UNL     1      -3.457   8.586  22.720  0.00  0.00    -0.060 NA
BRANCH  14  16
ATOM     16  C   UNL     1      -3.726  10.977  22.478  0.00  0.00    +0.079 A 
ATOM     17  C   UNL     1      -3.481  12.242  23.049  0.00  0.00    +0.062 A 
ATOM     18  C   UNL     1      -3.364  13.362  22.197  0.00  0.00    +0.015 A 
ATOM     19  C   UNL     1      -3.500  13.240  20.814  0.00  0.00    +0.001 A 
ATOM     20  C   UNL     1      -3.725  11.993  20.251  0.00  0.00    +0.002 A 
ATOM     21  C   UNL     1      -3.826  10.870  21.072  0.00  0.00    +0.028 A 
BRANCH  17  22
ATOM     22  C   UNL     1      -3.149  12.459  24.485  0.00  0.00    +0.244 C 
ATOM     23  O   UNL     1      -2.095  12.086  24.976  0.00  0.00    -0.270 OA
ATOM     24  N   UNL     1      -4.059  13.139  25.250  0.00  0.00    -0.325 N 
ATOM     25  H   UNL     1      -3.804  13.327  26.212  0.00  0.00    +0.145 HD
ATOM     26  H   UNL     1      -4.945  13.492  24.917  0.00  0.00    +0.145 HD
ENDBRANCH  17  22
ENDBRANCH  14  16
ENDBRANCH  10  12
ENDBRANCH   9  10
ENDBRANCH   5   9
ENDBRANCH   4   7
ENDBRANCH   1   4
BRANCH   1  27
ATOM     27  C   UNL     1      -4.084  10.591  29.686  0.00  0.00    +0.175 C 
BRANCH  27  28
ATOM     28  C   UNL     1      -4.185  11.992  30.306  0.00  0.00    +0.176 C 
ATOM     29  O   UNL     1      -4.057  11.853  31.748  0.00  0.00    -0.332 OA
ATOM     30  C   UNL     1      -4.024  13.108  32.505  0.00  0.00    +0.277 C 
ATOM     31  C   UNL     1      -5.263  13.975  32.171  0.00  0.00    +0.110 C 
ATOM     32  C   UNL     1      -5.459  14.125  30.647  0.00  0.00    +0.143 C 
ATOM     33  C   UNL     1      -5.475  12.759  29.959  0.00  0.00    +0.133 C 
BRANCH  33  34
ATOM     34  N   UNL     1      -5.574  12.918  28.500  0.00  0.00    -0.308 N 
ATOM     35  H   UNL     1      -4.813  13.380  28.023  0.00  0.00    +0.149 HD
ATOM     36  C   UNL     1      -6.605  12.492  27.765  0.00  0.00    +0.210 C 
ATOM     37  C   UNL     1      -7.761  11.815  28.525  0.00  0.00    +0.109 C 
ATOM     38  O   UNL     1      -6.654  12.626  26.542  0.00  0.00    -0.276 OA
ENDBRANCH  33  34
BRANCH  30  39
ATOM     39  C   UNL     1      -2.739  13.903  32.192  0.00  0.00    +0.414 C 
ATOM     40  O   UNL     1      -1.639  13.356  32.264  0.00  0.00    -0.240 OA
ATOM     41  O   UNL     1      -2.802  15.089  31.867  0.00  0.00    -0.240 OA
ENDBRANCH  30  39
BRANCH  32  42
ATOM     42  O   UNL     1      -6.689  14.799  30.383  0.00  0.00    -0.390 OA
ATOM     43  H   UNL     1      -6.522  15.737  30.266  0.00  0.00    +0.210 HD
ENDBRANCH  32  42
BRANCH  30  44
ATOM     44  O   UNL     1      -4.064  12.781  33.918  0.00  0.00    -0.343 OA
ATOM     45  C   UNL     1      -3.880  11.376  34.227  0.00  0.00    +0.198 C 
ENDBRANCH  30  44
ENDBRANCH  27  28
BRANCH  27  46
ATOM     46  O   UNL     1      -3.935   9.599  30.722  0.00  0.00    -0.387 OA
ATOM     47  H   UNL     1      -3.185   9.826  31.277  0.00  0.00    +0.210 HD
ENDBRANCH  27  46
ENDBRANCH   1  27
TORSDOF 15
