REMARK VINA RESULT:    -4.277      4.497      8.010
REMARK INTER + INTRA:         -10.400
REMARK INTER:                  -8.393
REMARK INTRA:                  -2.007
REMARK UNBOUND:                -2.997
REMARK  Name = lig_assembled_15.pdb
REMARK  16 active torsions:
REMARK  status: ('A' for Active; 'I' for Inactive)
REMARK    1  A    between atoms: _2  and  _9
REMARK    2  A    between atoms: _4  and  _18
REMARK    3  A    between atoms: _6  and  _7
REMARK    4  A    between atoms: _6  and  _18
REMARK    5  A    between atoms: _14  and  _34
REMARK    6  A    between atoms: _16  and  _22
REMARK    7  A    between atoms: _17  and  _21
REMARK    8  A    between atoms: _21  and  _22
REMARK    9  A    between atoms: _24  and  _25
REMARK   10  A    between atoms: _26  and  _27
REMARK   11  A    between atoms: _28  and  _30
REMARK   12  A    between atoms: _30  and  _31
REMARK   13  A    between atoms: _30  and  _32
REMARK   14  A    between atoms: _32  and  _33
REMARK   15  A    between atoms: _32  and  _34
REMARK   16  A    between atoms: _35  and  _37
REMARK                            x       y       z     vdW  Elec       q    Type
REMARK                         _______ _______ _______ _____ _____    ______ ____
ROOT
ATOM      1  C   UNL     1      -5.871  10.845  16.399  0.00  0.00    +0.163 C 
ENDROOT
BRANCH   1   2
ATOM      2  O   UNL     1      -5.105  12.022  16.093  0.00  0.00    -0.388 OA
ATOM      3  H   UNL     1      -5.471  12.774  16.565  0.00  0.00    +0.210 HD
ENDBRANCH   1   2
BRANCH   1   4
ATOM      4  C   UNL     1      -6.341  10.891  17.849  0.00  0.00    +0.141 C 
BRANCH   4   7
ATOM      5  C   UNL     1      -4.618  10.630  19.601  0.00  0.00    +0.401 C 
ATOM      6  O   UNL     1      -4.803   9.419  19.735  0.00  0.00    -0.226 OA
ATOM      7  N   UNL     1      -5.297  11.398  18.748  0.00  0.00    -0.279 N 
ATOM      8  H   UNL     1      -5.080  12.385  18.717  0.00  0.00    +0.152 HD
BRANCH   5   9
ATOM      9  O   UNL     1      -3.625  11.274  20.403  0.00  0.00    -0.444 OA
BRANCH   9  10
ATOM     10  C   UNL     1      -4.188  12.433  21.023  0.00  0.00    +0.292 C 
BRANCH  10  12
ATOM     11  N   UNL     1      -3.445  13.635  23.054  0.00  0.00    -0.131 NA
ATOM     12  C   UNL     1      -3.831  12.472  22.454  0.00  0.00    +0.121 A 
ATOM     13  C   UNL     1      -3.821  11.461  23.388  0.00  0.00    +0.143 A 
ATOM     14  N   UNL     1      -3.447  12.068  24.564  0.00  0.00    -0.220 N 
ATOM     15  N   UNL     1      -3.207  13.382  24.333  0.00  0.00    -0.060 NA
BRANCH  14  16
ATOM     16  C   UNL     1      -3.334  11.498  25.860  0.00  0.00    +0.067 A 
ATOM     17  C   UNL     1      -4.125  11.961  26.922  0.00  0.00    +0.029 A 
ATOM     18  C   UNL     1      -3.971  11.415  28.200  0.00  0.00    +0.017 A 
ATOM     19  C   UNL     1      -3.034  10.407  28.418  0.00  0.00    +0.018 A 
ATOM     20 BR   UNL     1      -2.813   9.694  30.155  0.00  0.00    -0.050 Br
ATOM     21  C   UNL     1      -2.253   9.929  27.368  0.00  0.00    +0.017 A 
ATOM     22  C   UNL     1      -2.404  10.471  26.088  0.00  0.00    +0.029 A 
ENDBRANCH  14  16
ENDBRANCH  10  12
ENDBRANCH   9  10
ENDBRANCH   5   9
ENDBRANCH   4   7
ENDBRANCH   1   4
BRANCH   1  23
ATOM     23  C   UNL     1      -5.039   9.572  16.168  0.00  0.00    +0.175 C 
BRANCH  23  24
ATOM     24  C   UNL     1      -4.038   9.737  15.016  0.00  0.00    +0.176 C 
ATOM     25  O   UNL     1      -4.733  10.370  13.906  0.00  0.00    -0.332 OA
ATOM     26  C   UNL     1      -3.902  10.705  12.746  0.00  0.00    +0.277 C 
ATOM     27  C   UNL     1      -3.144   9.452  12.243  0.00  0.00    +0.110 C 
ATOM     28  C   UNL     1      -2.415   8.727  13.394  0.00  0.00    +0.143 C 
ATOM     29  C   UNL     1      -3.372   8.429  14.548  0.00  0.00    +0.133 C 
BRANCH  29  30
ATOM     30  N   UNL     1      -2.647   7.817  15.673  0.00  0.00    -0.308 N 
ATOM     31  H   UNL     1      -1.941   8.372  16.137  0.00  0.00    +0.149 HD
ATOM     32  C   UNL     1      -2.862   6.578  16.122  0.00  0.00    +0.210 C 
ATOM     33  C   UNL     1      -3.927   5.750  15.378  0.00  0.00    +0.109 C 
ATOM     34  O   UNL     1      -2.250   6.096  17.076  0.00  0.00    -0.276 OA
ENDBRANCH  29  30
BRANCH  26  35
ATOM     35  C   UNL     1      -2.888  11.812  13.101  0.00  0.00    +0.414 C 
ATOM     36  O   UNL     1      -1.822  11.896  12.492  0.00  0.00    -0.240 OA
ATOM     37  O   UNL     1      -3.136  12.622  13.996  0.00  0.00    -0.240 OA
ENDBRANCH  26  35
BRANCH  28  38
ATOM     38  O   UNL     1      -1.859   7.502  12.915  0.00  0.00    -0.390 OA
ATOM     39  H   UNL     1      -1.209   7.177  13.544  0.00  0.00    +0.210 HD
ENDBRANCH  28  38
BRANCH  26  40
ATOM     40  O   UNL     1      -4.778  11.167  11.685  0.00  0.00    -0.343 OA
ATOM     41  C   UNL     1      -4.526  10.578  10.384  0.00  0.00    +0.198 C 
ENDBRANCH  26  40
ENDBRANCH  23  24
BRANCH  23  42
ATOM     42  O   UNL     1      -5.908   8.450  15.914  0.00  0.00    -0.387 OA
ATOM     43  H   UNL     1      -5.488   7.855  15.289  0.00  0.00    +0.210 HD
ENDBRANCH  23  42
ENDBRANCH   1  23
TORSDOF 14
