REMARK VINA RESULT:    -5.025      3.503     10.497
REMARK INTER + INTRA:         -13.799
REMARK INTER:                 -10.325
REMARK INTRA:                  -3.474
REMARK UNBOUND:                -3.487
REMARK  Name = lig_assembled_90.pdb
REMARK  22 active torsions:
REMARK  status: ('A' for Active; 'I' for Inactive)
REMARK    1  A    between atoms: _2  and  _13
REMARK    2  A    between atoms: _3  and  _15
REMARK    3  A    between atoms: _4  and  _17
REMARK    4  A    between atoms: _8  and  _28
REMARK    5  A    between atoms: _10  and  _11
REMARK    6  A    between atoms: _10  and  _28
REMARK    7  A    between atoms: _13  and  _14
REMARK    8  A    between atoms: _15  and  _16
REMARK    9  A    between atoms: _16  and  _17
REMARK   10  A    between atoms: _16  and  _22
REMARK   11  A    between atoms: _24  and  _44
REMARK   12  A    between atoms: _26  and  _32
REMARK   13  A    between atoms: _27  and  _31
REMARK   14  A    between atoms: _31  and  _32
REMARK   15  A    between atoms: _34  and  _35
REMARK   16  A    between atoms: _36  and  _37
REMARK   17  A    between atoms: _38  and  _40
REMARK   18  A    between atoms: _40  and  _41
REMARK   19  A    between atoms: _40  and  _42
REMARK   20  A    between atoms: _42  and  _43
REMARK   21  A    between atoms: _42  and  _44
REMARK   22  A    between atoms: _45  and  _47
REMARK                            x       y       z     vdW  Elec       q    Type
REMARK                         _______ _______ _______ _____ _____    ______ ____
ROOT
ATOM      1  C   UNL     1      -4.645  13.211  22.839  0.00  0.00    +0.401 C 
ATOM      2  O   UNL     1      -5.820  13.457  23.121  0.00  0.00    -0.226 OA
ATOM      3  N   UNL     1      -3.691  12.992  23.744  0.00  0.00    -0.279 N 
ATOM      4  H   UNL     1      -2.758  12.788  23.414  0.00  0.00    +0.152 HD
ENDROOT
BRANCH   3   5
ATOM      5  C   UNL     1      -3.919  13.032  25.194  0.00  0.00    +0.141 C 
BRANCH   5   6
ATOM      6  C   UNL     1      -3.993  11.633  25.797  0.00  0.00    +0.163 C 
BRANCH   6   7
ATOM      7  O   UNL     1      -2.964  10.801  25.237  0.00  0.00    -0.388 OA
ATOM      8  H   UNL     1      -2.141  11.295  25.194  0.00  0.00    +0.210 HD
ENDBRANCH   6   7
BRANCH   6   9
ATOM      9  C   UNL     1      -3.856  11.724  27.326  0.00  0.00    +0.175 C 
BRANCH   9  10
ATOM     10  C   UNL     1      -3.408  10.393  27.947  0.00  0.00    +0.176 C 
ATOM     11  O   UNL     1      -4.120   9.321  27.269  0.00  0.00    -0.332 OA
ATOM     12  C   UNL     1      -3.739   7.961  27.660  0.00  0.00    +0.277 C 
ATOM     13  C   UNL     1      -3.863   7.783  29.193  0.00  0.00    +0.110 C 
ATOM     14  C   UNL     1      -3.149   8.917  29.957  0.00  0.00    +0.143 C 
ATOM     15  C   UNL     1      -3.617  10.288  29.469  0.00  0.00    +0.133 C 
BRANCH  15  16
ATOM     16  N   UNL     1      -2.867  11.360  30.143  0.00  0.00    -0.308 N 
ATOM     17  H   UNL     1      -1.887  11.463  29.917  0.00  0.00    +0.149 HD
ATOM     18  C   UNL     1      -3.395  12.204  31.033  0.00  0.00    +0.210 C 
ATOM     19  C   UNL     1      -4.883  12.003  31.375  0.00  0.00    +0.109 C 
ATOM     20  O   UNL     1      -2.745  13.101  31.571  0.00  0.00    -0.276 OA
ENDBRANCH  15  16
BRANCH  12  21
ATOM     21  C   UNL     1      -2.293   7.650  27.220  0.00  0.00    +0.414 C 
ATOM     22  O   UNL     1      -1.645   6.775  27.793  0.00  0.00    -0.240 OA
ATOM     23  O   UNL     1      -1.775   8.273  26.293  0.00  0.00    -0.240 OA
ENDBRANCH  12  21
BRANCH  14  24
ATOM     24  O   UNL     1      -3.416   8.799  31.355  0.00  0.00    -0.390 OA
ATOM     25  H   UNL     1      -3.404   9.670  31.759  0.00  0.00    +0.210 HD
ENDBRANCH  14  24
BRANCH  12  26
ATOM     26  O   UNL     1      -4.654   7.036  27.016  0.00  0.00    -0.343 OA
ATOM     27  C   UNL     1      -5.805   7.653  26.386  0.00  0.00    +0.198 C 
ENDBRANCH  12  26
ENDBRANCH   9  10
BRANCH   9  28
ATOM     28  O   UNL     1      -5.102  12.151  27.912  0.00  0.00    -0.387 OA
ATOM     29  H   UNL     1      -5.388  12.969  27.498  0.00  0.00    +0.210 HD
ENDBRANCH   9  28
ENDBRANCH   6   9
ENDBRANCH   5   6
ENDBRANCH   3   5
BRANCH   1  30
ATOM     30  O   UNL     1      -4.260  13.145  21.463  0.00  0.00    -0.444 OA
BRANCH  30  31
ATOM     31  C   UNL     1      -3.286  12.113  21.288  0.00  0.00    +0.292 C 
BRANCH  31  33
ATOM     32  N   UNL     1      -3.318   9.914  22.434  0.00  0.00    -0.131 NA
ATOM     33  C   UNL     1      -3.886  10.790  21.544  0.00  0.00    +0.120 A 
ATOM     34  C   UNL     1      -5.015  10.213  21.007  0.00  0.00    +0.137 A 
ATOM     35  N   UNL     1      -5.092   9.001  21.623  0.00  0.00    -0.242 N 
ATOM     36  N   UNL     1      -4.061   8.815  22.466  0.00  0.00    -0.065 NA
BRANCH  35  37
ATOM     37  C   UNL     1      -6.039   7.938  21.388  0.00  0.00    +0.240 C 
BRANCH  37  38
ATOM     38  C   UNL     1      -5.597   7.048  20.248  0.00  0.00    +0.235 C 
ATOM     39  O   UNL     1      -4.886   6.058  20.417  0.00  0.00    -0.274 OA
ATOM     40  N   UNL     1      -6.094   7.392  19.005  0.00  0.00    -0.311 N 
ATOM     41  H   UNL     1      -6.435   8.340  18.862  0.00  0.00    +0.149 HD
BRANCH  40  42
ATOM     42  C   UNL     1      -5.675   6.665  17.815  0.00  0.00    +0.137 C 
BRANCH  42  43
ATOM     43  C   UNL     1      -4.449   7.323  17.165  0.00  0.00    +0.151 C 
BRANCH  43  44
ATOM     44  O   UNL     1      -3.420   6.336  17.021  0.00  0.00    -0.388 OA
ATOM     45  H   UNL     1      -3.098   6.346  16.097  0.00  0.00    +0.210 HD
ENDBRANCH  43  44
BRANCH  43  46
ATOM     46  C   UNL     1      -4.797   7.966  15.817  0.00  0.00    +0.162 C 
BRANCH  46  47
ATOM     47  N   UNL     1      -4.052   9.194  15.577  0.00  0.00    -0.269 N 
ATOM     48  C   UNL     1      -4.449  10.420  16.063  0.00  0.00    +0.113 A 
ATOM     49  C   UNL     1      -3.528  11.325  15.594  0.00  0.00    +0.137 A 
ATOM     50  N   UNL     1      -2.578  10.695  14.832  0.00  0.00    -0.172 NA
ATOM     51  C   UNL     1      -2.910   9.414  14.848  0.00  0.00    +0.450 A 
ATOM     52  N   UNL     1      -2.138   8.408  14.158  0.00  0.00    +0.120 N 
ATOM     53  O   UNL     1      -2.462   7.224  14.319  0.00  0.00    +0.045 OA
ATOM     54  O   UNL     1      -1.207   8.799  13.442  0.00  0.00    -0.573 OA
ENDBRANCH  46  47
ENDBRANCH  43  46
ENDBRANCH  42  43
ENDBRANCH  40  42
ENDBRANCH  37  38
ENDBRANCH  35  37
ENDBRANCH  31  33
ENDBRANCH  30  31
ENDBRANCH   1  30
TORSDOF 20
