REMARK VINA RESULT:    -4.985      1.800      2.617
REMARK INTER + INTRA:         -11.679
REMARK INTER:                  -9.513
REMARK INTRA:                  -2.166
REMARK UNBOUND:                -2.759
REMARK  Name = lig_assembled_38.pdb
REMARK  17 active torsions:
REMARK  status: ('A' for Active; 'I' for Inactive)
REMARK    1  A    between atoms: _2  and  _9
REMARK    2  A    between atoms: _4  and  _19
REMARK    3  A    between atoms: _6  and  _7
REMARK    4  A    between atoms: _6  and  _19
REMARK    5  A    between atoms: _9  and  _10
REMARK    6  A    between atoms: _15  and  _35
REMARK    7  A    between atoms: _17  and  _23
REMARK    8  A    between atoms: _18  and  _22
REMARK    9  A    between atoms: _22  and  _23
REMARK   10  A    between atoms: _25  and  _26
REMARK   11  A    between atoms: _27  and  _28
REMARK   12  A    between atoms: _29  and  _31
REMARK   13  A    between atoms: _31  and  _32
REMARK   14  A    between atoms: _31  and  _33
REMARK   15  A    between atoms: _33  and  _34
REMARK   16  A    between atoms: _33  and  _35
REMARK   17  A    between atoms: _36  and  _38
REMARK                            x       y       z     vdW  Elec       q    Type
REMARK                         _______ _______ _______ _____ _____    ______ ____
ROOT
ATOM      1  C   UNL     1      -5.543  11.473  27.362  0.00  0.00    +0.163 C 
ENDROOT
BRANCH   1   2
ATOM      2  O   UNL     1      -6.159  10.583  26.417  0.00  0.00    -0.388 OA
ATOM      3  H   UNL     1      -6.208  11.010  25.559  0.00  0.00    +0.210 HD
ENDBRANCH   1   2
BRANCH   1   4
ATOM      4  C   UNL     1      -4.339  12.159  26.724  0.00  0.00    +0.141 C 
BRANCH   4   7
ATOM      5  C   UNL     1      -2.998  11.887  24.667  0.00  0.00    +0.401 C 
ATOM      6  O   UNL     1      -1.985  12.401  25.147  0.00  0.00    -0.226 OA
ATOM      7  N   UNL     1      -4.145  11.739  25.331  0.00  0.00    -0.279 N 
ATOM      8  H   UNL     1      -4.924  11.313  24.848  0.00  0.00    +0.152 HD
BRANCH   5   9
ATOM      9  O   UNL     1      -2.965  11.417  23.316  0.00  0.00    -0.444 OA
BRANCH   9  10
ATOM     10  C   UNL     1      -3.847  12.207  22.514  0.00  0.00    +0.292 C 
BRANCH  10  12
ATOM     11  N   UNL     1      -4.132  10.116  21.218  0.00  0.00    -0.131 NA
ATOM     12  C   UNL     1      -4.209  11.482  21.281  0.00  0.00    +0.120 A 
ATOM     13  C   UNL     1      -4.685  11.961  20.081  0.00  0.00    +0.137 A 
ATOM     14  N   UNL     1      -4.932  10.835  19.350  0.00  0.00    -0.247 N 
ATOM     15  N   UNL     1      -4.584   9.728  20.034  0.00  0.00    -0.065 NA
BRANCH  14  16
ATOM     16  C   UNL     1      -5.699  10.725  18.122  0.00  0.00    +0.180 C 
BRANCH  16  17
ATOM     17  C   UNL     1      -4.882  10.978  16.878  0.00  0.00    -0.025 A 
ATOM     18  C   UNL     1      -4.773  12.269  16.338  0.00  0.00    +0.005 A 
ATOM     19  C   UNL     1      -3.942  12.513  15.240  0.00  0.00    +0.001 A 
ATOM     20  C   UNL     1      -3.213  11.472  14.669  0.00  0.00    +0.015 A 
ATOM     21  C   UNL     1      -3.324  10.188  15.192  0.00  0.00    +0.018 A 
ATOM     22 BR   UNL     1      -2.329   8.774  14.427  0.00  0.00    -0.050 Br
ATOM     23  C   UNL     1      -4.151   9.935  16.289  0.00  0.00    +0.020 A 
ENDBRANCH  16  17
ENDBRANCH  14  16
ENDBRANCH  10  12
ENDBRANCH   9  10
ENDBRANCH   5   9
ENDBRANCH   4   7
ENDBRANCH   1   4
BRANCH   1  24
ATOM     24  C   UNL     1      -5.093  10.713  28.622  0.00  0.00    +0.175 C 
BRANCH  24  25
ATOM     25  C   UNL     1      -4.124   9.568  28.291  0.00  0.00    +0.176 C 
ATOM     26  O   UNL     1      -4.877   8.530  27.604  0.00  0.00    -0.332 OA
ATOM     27  C   UNL     1      -4.089   7.395  27.113  0.00  0.00    +0.277 C 
ATOM     28  C   UNL     1      -3.266   6.769  28.266  0.00  0.00    +0.110 C 
ATOM     29  C   UNL     1      -2.473   7.839  29.046  0.00  0.00    +0.143 C 
ATOM     30  C   UNL     1      -3.389   8.973  29.507  0.00  0.00    +0.133 C 
BRANCH  30  31
ATOM     31  N   UNL     1      -2.609  10.028  30.173  0.00  0.00    -0.308 N 
ATOM     32  H   UNL     1      -1.940  10.542  29.617  0.00  0.00    +0.149 HD
ATOM     33  C   UNL     1      -2.726  10.350  31.464  0.00  0.00    +0.210 C 
ATOM     34  C   UNL     1      -3.736   9.531  32.290  0.00  0.00    +0.109 C 
ATOM     35  O   UNL     1      -2.070  11.248  31.991  0.00  0.00    -0.276 OA
ENDBRANCH  30  31
BRANCH  27  36
ATOM     36  C   UNL     1      -3.137   7.838  25.982  0.00  0.00    +0.414 C 
ATOM     37  O   UNL     1      -3.536   8.593  25.096  0.00  0.00    -0.240 OA
ATOM     38  O   UNL     1      -1.972   7.440  25.956  0.00  0.00    -0.240 OA
ENDBRANCH  27  36
BRANCH  27  39
ATOM     39  O   UNL     1      -5.010   6.393  26.612  0.00  0.00    -0.343 OA
ATOM     40  C   UNL     1      -6.367   6.859  26.401  0.00  0.00    +0.198 C 
ENDBRANCH  27  39
BRANCH  29  41
ATOM     41  O   UNL     1      -1.853   7.243  30.186  0.00  0.00    -0.390 OA
ATOM     42  H   UNL     1      -2.028   6.299  30.190  0.00  0.00    +0.210 HD
ENDBRANCH  29  41
ENDBRANCH  24  25
BRANCH  24  43
ATOM     43  O   UNL     1      -6.240  10.203  29.330  0.00  0.00    -0.387 OA
ATOM     44  H   UNL     1      -6.045   9.326  29.668  0.00  0.00    +0.210 HD
ENDBRANCH  24  43
ENDBRANCH   1  24
TORSDOF 15
