REMARK VINA RESULT:    -4.648      2.948      6.157
REMARK INTER + INTRA:         -11.365
REMARK INTER:                  -7.359
REMARK INTRA:                  -4.006
REMARK UNBOUND:                -3.049
REMARK  Name = lig_assembled_28.pdb
REMARK  17 active torsions:
REMARK  status: ('A' for Active; 'I' for Inactive)
REMARK    1  A    between atoms: _2  and  _9
REMARK    2  A    between atoms: _4  and  _22
REMARK    3  A    between atoms: _6  and  _7
REMARK    4  A    between atoms: _6  and  _22
REMARK    5  A    between atoms: _9  and  _10
REMARK    6  A    between atoms: _18  and  _38
REMARK    7  A    between atoms: _20  and  _26
REMARK    8  A    between atoms: _21  and  _25
REMARK    9  A    between atoms: _25  and  _26
REMARK   10  A    between atoms: _28  and  _29
REMARK   11  A    between atoms: _30  and  _31
REMARK   12  A    between atoms: _32  and  _34
REMARK   13  A    between atoms: _34  and  _35
REMARK   14  A    between atoms: _34  and  _36
REMARK   15  A    between atoms: _36  and  _37
REMARK   16  A    between atoms: _36  and  _38
REMARK   17  A    between atoms: _39  and  _41
REMARK                            x       y       z     vdW  Elec       q    Type
REMARK                         _______ _______ _______ _____ _____    ______ ____
ROOT
ATOM      1  C   UNL     1      -2.778  10.155  26.813  0.00  0.00    +0.163 C 
ENDROOT
BRANCH   1   2
ATOM      2  O   UNL     1      -1.699  10.320  25.878  0.00  0.00    -0.388 OA
ATOM      3  H   UNL     1      -1.931   9.907  25.043  0.00  0.00    +0.210 HD
ENDBRANCH   1   2
BRANCH   1   4
ATOM      4  C   UNL     1      -2.387   9.144  27.886  0.00  0.00    +0.141 C 
BRANCH   4   7
ATOM      5  C   UNL     1      -3.558   8.963  30.055  0.00  0.00    +0.401 C 
ATOM      6  O   UNL     1      -4.125   7.907  29.768  0.00  0.00    -0.226 OA
ATOM      7  N   UNL     1      -2.733   9.614  29.233  0.00  0.00    -0.279 N 
ATOM      8  H   UNL     1      -2.324  10.480  29.555  0.00  0.00    +0.152 HD
BRANCH   5   9
ATOM      9  O   UNL     1      -3.787   9.548  31.339  0.00  0.00    -0.444 OA
BRANCH   9  10
ATOM     10  C   UNL     1      -2.582  10.159  31.808  0.00  0.00    +0.292 C 
BRANCH  10  12
ATOM     11  N   UNL     1      -1.833  12.470  32.304  0.00  0.00    -0.131 NA
ATOM     12  C   UNL     1      -2.842  11.547  32.233  0.00  0.00    +0.120 A 
ATOM     13  C   UNL     1      -4.029  12.153  32.574  0.00  0.00    +0.137 A 
ATOM     14  N   UNL     1      -3.696  13.466  32.748  0.00  0.00    -0.247 N 
ATOM     15  N   UNL     1      -2.365  13.639  32.633  0.00  0.00    -0.065 NA
BRANCH  14  16
ATOM     16  C   UNL     1      -4.542  14.638  32.933  0.00  0.00    +0.180 C 
BRANCH  16  17
ATOM     17  C   UNL     1      -5.090  15.200  31.642  0.00  0.00    -0.022 A 
ATOM     18  C   UNL     1      -6.328  14.753  31.146  0.00  0.00    +0.055 A 
ATOM     19  C   UNL     1      -6.840  15.377  30.029  0.00  0.00    +0.167 A 
ATOM     20  O   UNL     1      -8.044  15.107  29.453  0.00  0.00    -0.453 OA
ATOM     21  C   UNL     1      -8.089  16.131  28.437  0.00  0.00    +0.466 C 
ATOM     22  O   UNL     1      -6.863  16.885  28.328  0.00  0.00    -0.453 OA
ATOM     23  C   UNL     1      -6.168  16.387  29.386  0.00  0.00    +0.166 A 
ATOM     24  C   UNL     1      -4.937  16.829  29.822  0.00  0.00    +0.050 A 
ATOM     25  C   UNL     1      -4.399  16.233  30.966  0.00  0.00    +0.009 A 
ENDBRANCH  16  17
ENDBRANCH  14  16
ENDBRANCH  10  12
ENDBRANCH   9  10
ENDBRANCH   5   9
ENDBRANCH   4   7
ENDBRANCH   1   4
BRANCH   1  26
ATOM     26  C   UNL     1      -4.055   9.679  26.099  0.00  0.00    +0.175 C 
BRANCH  26  27
ATOM     27  C   UNL     1      -4.834  10.845  25.472  0.00  0.00    +0.176 C 
ATOM     28  O   UNL     1      -4.131  11.254  24.266  0.00  0.00    -0.332 OA
ATOM     29  C   UNL     1      -4.791  12.294  23.471  0.00  0.00    +0.277 C 
ATOM     30  C   UNL     1      -5.094  13.534  24.346  0.00  0.00    +0.110 C 
ATOM     31  C   UNL     1      -5.813  13.145  25.655  0.00  0.00    +0.143 C 
ATOM     32  C   UNL     1      -5.043  12.055  26.401  0.00  0.00    +0.133 C 
BRANCH  32  33
ATOM     33  N   UNL     1      -5.782  11.631  27.601  0.00  0.00    -0.308 N 
ATOM     34  H   UNL     1      -6.622  11.085  27.469  0.00  0.00    +0.149 HD
ATOM     35  C   UNL     1      -5.415  11.921  28.852  0.00  0.00    +0.210 C 
ATOM     36  C   UNL     1      -4.144  12.776  29.018  0.00  0.00    +0.109 C 
ATOM     37  O   UNL     1      -6.045  11.540  29.839  0.00  0.00    -0.276 OA
ENDBRANCH  32  33
BRANCH  29  38
ATOM     38  C   UNL     1      -6.102  11.763  22.856  0.00  0.00    +0.414 C 
ATOM     39  O   UNL     1      -7.063  12.516  22.699  0.00  0.00    -0.240 OA
ATOM     40  O   UNL     1      -6.200  10.583  22.517  0.00  0.00    -0.240 OA
ENDBRANCH  29  38
BRANCH  29  41
ATOM     41  O   UNL     1      -3.882  12.693  22.412  0.00  0.00    -0.343 OA
ATOM     42  C   UNL     1      -2.983  11.652  21.952  0.00  0.00    +0.198 C 
ENDBRANCH  29  41
BRANCH  31  43
ATOM     43  O   UNL     1      -5.937  14.293  26.496  0.00  0.00    -0.390 OA
ATOM     44  H   UNL     1      -6.754  14.754  26.292  0.00  0.00    +0.210 HD
ENDBRANCH  31  43
ENDBRANCH  26  27
BRANCH  26  45
ATOM     45  O   UNL     1      -4.898   8.957  27.019  0.00  0.00    -0.387 OA
ATOM     46  H   UNL     1      -5.302   8.213  26.567  0.00  0.00    +0.210 HD
ENDBRANCH  26  45
ENDBRANCH   1  26
TORSDOF 15
