REMARK VINA RESULT:    -3.989      4.246      6.930
REMARK INTER + INTRA:         -10.975
REMARK INTER:                  -8.305
REMARK INTRA:                  -2.671
REMARK UNBOUND:                -3.721
REMARK  Name = lig_assembled_35.pdb
REMARK  19 active torsions:
REMARK  status: ('A' for Active; 'I' for Inactive)
REMARK    1  A    between atoms: _2  and  _9
REMARK    2  A    between atoms: _4  and  _17
REMARK    3  A    between atoms: _5  and  _9
REMARK    4  A    between atoms: _5  and  _11
REMARK    5  A    between atoms: _6  and  _7
REMARK    6  A    between atoms: _6  and  _17
REMARK    7  A    between atoms: _9  and  _10
REMARK    8  A    between atoms: _13  and  _33
REMARK    9  A    between atoms: _15  and  _21
REMARK   10  A    between atoms: _16  and  _20
REMARK   11  A    between atoms: _20  and  _21
REMARK   12  A    between atoms: _23  and  _24
REMARK   13  A    between atoms: _25  and  _26
REMARK   14  A    between atoms: _27  and  _29
REMARK   15  A    between atoms: _29  and  _30
REMARK   16  A    between atoms: _29  and  _31
REMARK   17  A    between atoms: _31  and  _32
REMARK   18  A    between atoms: _31  and  _33
REMARK   19  A    between atoms: _34  and  _36
REMARK                            x       y       z     vdW  Elec       q    Type
REMARK                         _______ _______ _______ _____ _____    ______ ____
ROOT
ATOM      1  C   UNL     1      -6.231   9.434  23.226  0.00  0.00    +0.163 C 
ENDROOT
BRANCH   1   2
ATOM      2  O   UNL     1      -7.065   9.431  24.397  0.00  0.00    -0.388 OA
ATOM      3  H   UNL     1      -7.840   9.974  24.240  0.00  0.00    +0.210 HD
ENDBRANCH   1   2
BRANCH   1   4
ATOM      4  C   UNL     1      -4.936   8.640  23.471  0.00  0.00    +0.175 C 
BRANCH   4   5
ATOM      5  C   UNL     1      -3.888   9.465  24.231  0.00  0.00    +0.176 C 
ATOM      6  O   UNL     1      -4.244   9.451  25.641  0.00  0.00    -0.332 OA
ATOM      7  C   UNL     1      -3.291  10.105  26.543  0.00  0.00    +0.277 C 
ATOM      8  C   UNL     1      -3.024  11.560  26.085  0.00  0.00    +0.110 C 
ATOM      9  C   UNL     1      -2.672  11.629  24.584  0.00  0.00    +0.143 C 
ATOM     10  C   UNL     1      -3.728  10.916  23.739  0.00  0.00    +0.133 C 
BRANCH  10  11
ATOM     11  N   UNL     1      -3.337  10.913  22.321  0.00  0.00    -0.308 N 
ATOM     12  H   UNL     1      -2.578  10.308  22.042  0.00  0.00    +0.149 HD
ATOM     13  C   UNL     1      -3.921  11.658  21.378  0.00  0.00    +0.210 C 
ATOM     14  C   UNL     1      -5.057  12.589  21.840  0.00  0.00    +0.109 C 
ATOM     15  O   UNL     1      -3.582  11.624  20.194  0.00  0.00    -0.276 OA
ENDBRANCH  10  11
BRANCH   7  16
ATOM     16  C   UNL     1      -1.959   9.327  26.589  0.00  0.00    +0.414 C 
ATOM     17  O   UNL     1      -1.949   8.107  26.432  0.00  0.00    -0.240 OA
ATOM     18  O   UNL     1      -0.897   9.919  26.784  0.00  0.00    -0.240 OA
ENDBRANCH   7  16
BRANCH   7  19
ATOM     19  O   UNL     1      -3.880  10.144  27.868  0.00  0.00    -0.343 OA
ATOM     20  C   UNL     1      -4.044  11.472  28.427  0.00  0.00    +0.198 C 
ENDBRANCH   7  19
BRANCH   9  21
ATOM     21  O   UNL     1      -2.583  12.994  24.172  0.00  0.00    -0.390 OA
ATOM     22  H   UNL     1      -2.517  13.559  24.946  0.00  0.00    +0.210 HD
ENDBRANCH   9  21
ENDBRANCH   4   5
BRANCH   4  23
ATOM     23  O   UNL     1      -4.392   8.179  22.218  0.00  0.00    -0.387 OA
ATOM     24  H   UNL     1      -4.287   8.924  21.621  0.00  0.00    +0.210 HD
ENDBRANCH   4  23
ENDBRANCH   1   4
BRANCH   1  25
ATOM     25  C   UNL     1      -6.985   8.828  22.047  0.00  0.00    +0.141 C 
BRANCH  25  28
ATOM     26  C   UNL     1      -6.214   9.332  19.754  0.00  0.00    +0.401 C 
ATOM     27  O   UNL     1      -5.578   8.283  19.636  0.00  0.00    -0.226 OA
ATOM     28  N   UNL     1      -6.896   9.672  20.849  0.00  0.00    -0.279 N 
ATOM     29  H   UNL     1      -7.379  10.559  20.854  0.00  0.00    +0.152 HD
BRANCH  26  30
ATOM     30  O   UNL     1      -6.233  10.260  18.666  0.00  0.00    -0.444 OA
BRANCH  30  31
ATOM     31  C   UNL     1      -6.360   9.546  17.433  0.00  0.00    +0.292 C 
BRANCH  31  33
ATOM     32  N   UNL     1      -4.495  11.011  16.725  0.00  0.00    -0.131 NA
ATOM     33  C   UNL     1      -5.239   9.878  16.532  0.00  0.00    +0.120 A 
ATOM     34  C   UNL     1      -4.758   9.207  15.430  0.00  0.00    +0.138 A 
ATOM     35  N   UNL     1      -3.711   9.973  15.008  0.00  0.00    -0.238 N 
ATOM     36  N   UNL     1      -3.571  11.067  15.776  0.00  0.00    -0.065 NA
BRANCH  35  37
ATOM     37  C   UNL     1      -2.814   9.778  13.885  0.00  0.00    +0.214 C 
ATOM     38  C   UNL     1      -3.145   8.489  13.139  0.00  0.00    +0.045 C 
BRANCH  37  39
ATOM     39  C   UNL     1      -2.803  10.984  12.968  0.00  0.00    +0.329 C 
ATOM     40  O   UNL     1      -1.828  11.361  12.332  0.00  0.00    -0.249 OA
BRANCH  39  41
ATOM     41  O   UNL     1      -3.979  11.658  12.916  0.00  0.00    -0.479 OA
ATOM     42  H   UNL     1      -4.422  11.674  12.043  0.00  0.00    +0.295 HD
ENDBRANCH  39  41
ENDBRANCH  37  39
ENDBRANCH  35  37
ENDBRANCH  31  33
ENDBRANCH  30  31
ENDBRANCH  26  30
ENDBRANCH  25  28
ENDBRANCH   1  25
TORSDOF 16
