REMARK VINA RESULT:    -4.246      4.007      6.490
REMARK INTER + INTRA:         -11.142
REMARK INTER:                  -8.524
REMARK INTRA:                  -2.618
REMARK UNBOUND:                -3.048
REMARK  Name = lig_assembled_50.pdb
REMARK  20 active torsions:
REMARK  status: ('A' for Active; 'I' for Inactive)
REMARK    1  A    between atoms: _2  and  _9
REMARK    2  A    between atoms: _4  and  _17
REMARK    3  A    between atoms: _5  and  _10
REMARK    4  A    between atoms: _5  and  _11
REMARK    5  A    between atoms: _6  and  _7
REMARK    6  A    between atoms: _6  and  _17
REMARK    7  A    between atoms: _9  and  _10
REMARK    8  A    between atoms: _10  and  _12
REMARK    9  A    between atoms: _13  and  _33
REMARK   10  A    between atoms: _15  and  _21
REMARK   11  A    between atoms: _16  and  _20
REMARK   12  A    between atoms: _20  and  _21
REMARK   13  A    between atoms: _23  and  _24
REMARK   14  A    between atoms: _25  and  _26
REMARK   15  A    between atoms: _27  and  _29
REMARK   16  A    between atoms: _29  and  _30
REMARK   17  A    between atoms: _29  and  _31
REMARK   18  A    between atoms: _31  and  _32
REMARK   19  A    between atoms: _31  and  _33
REMARK   20  A    between atoms: _34  and  _36
REMARK                            x       y       z     vdW  Elec       q    Type
REMARK                         _______ _______ _______ _____ _____    ______ ____
ROOT
ATOM      1  C   UNL     1      -5.313   7.407  24.038  0.00  0.00    +0.163 C 
ENDROOT
BRANCH   1   2
ATOM      2  O   UNL     1      -4.178   6.923  24.774  0.00  0.00    -0.388 OA
ATOM      3  H   UNL     1      -3.515   7.615  24.833  0.00  0.00    +0.210 HD
ENDBRANCH   1   2
BRANCH   1   4
ATOM      4  C   UNL     1      -5.013   8.774  23.399  0.00  0.00    +0.175 C 
BRANCH   4   5
ATOM      5  C   UNL     1      -3.950   9.557  24.184  0.00  0.00    +0.176 C 
ATOM      6  O   UNL     1      -4.292   9.484  25.595  0.00  0.00    -0.332 OA
ATOM      7  C   UNL     1      -3.325  10.091  26.514  0.00  0.00    +0.277 C 
ATOM      8  C   UNL     1      -3.052  11.563  26.118  0.00  0.00    +0.110 C 
ATOM      9  C   UNL     1      -2.715  11.696  24.618  0.00  0.00    +0.143 C 
ATOM     10  C   UNL     1      -3.785  11.027  23.754  0.00  0.00    +0.133 C 
BRANCH  10  11
ATOM     11  N   UNL     1      -3.410  11.084  22.333  0.00  0.00    -0.308 N 
ATOM     12  H   UNL     1      -2.599  10.558  22.038  0.00  0.00    +0.149 HD
ATOM     13  C   UNL     1      -4.070  11.785  21.407  0.00  0.00    +0.210 C 
ATOM     14  C   UNL     1      -5.285  12.597  21.894  0.00  0.00    +0.109 C 
ATOM     15  O   UNL     1      -3.741  11.803  20.221  0.00  0.00    -0.276 OA
ENDBRANCH  10  11
BRANCH   7  16
ATOM     16  C   UNL     1      -1.998   9.303  26.512  0.00  0.00    +0.414 C 
ATOM     17  O   UNL     1      -2.007   8.075  26.432  0.00  0.00    -0.240 OA
ATOM     18  O   UNL     1      -0.921   9.894  26.590  0.00  0.00    -0.240 OA
ENDBRANCH   7  16
BRANCH   9  19
ATOM     19  O   UNL     1      -2.621  13.077  24.266  0.00  0.00    -0.390 OA
ATOM     20  H   UNL     1      -1.948  13.500  24.804  0.00  0.00    +0.210 HD
ENDBRANCH   9  19
BRANCH   7  21
ATOM     21  O   UNL     1      -3.900  10.075  27.846  0.00  0.00    -0.343 OA
ATOM     22  C   UNL     1      -3.795  11.325  28.574  0.00  0.00    +0.198 C 
ENDBRANCH   7  21
ENDBRANCH   4   5
BRANCH   4  23
ATOM     23  O   UNL     1      -6.223   9.549  23.292  0.00  0.00    -0.387 OA
ATOM     24  H   UNL     1      -6.901   9.165  23.853  0.00  0.00    +0.210 HD
ENDBRANCH   4  23
ENDBRANCH   1   4
BRANCH   1  25
ATOM     25  C   UNL     1      -5.694   6.409  22.950  0.00  0.00    +0.141 C 
BRANCH  25  28
ATOM     26  C   UNL     1      -5.870   6.816  20.520  0.00  0.00    +0.401 C 
ATOM     27  O   UNL     1      -4.993   6.001  20.224  0.00  0.00    -0.226 OA
ATOM     28  N   UNL     1      -6.257   7.074  21.769  0.00  0.00    -0.279 N 
ATOM     29  H   UNL     1      -6.979   7.767  21.911  0.00  0.00    +0.152 HD
BRANCH  26  30
ATOM     30  O   UNL     1      -6.523   7.543  19.475  0.00  0.00    -0.444 OA
BRANCH  30  31
ATOM     31  C   UNL     1      -5.999   7.134  18.209  0.00  0.00    +0.292 C 
BRANCH  31  33
ATOM     32  N   UNL     1      -4.710   9.248  18.085  0.00  0.00    -0.131 NA
ATOM     33  C   UNL     1      -5.484   8.300  17.463  0.00  0.00    +0.120 A 
ATOM     34  C   UNL     1      -5.638   8.643  16.136  0.00  0.00    +0.137 A 
ATOM     35  N   UNL     1      -4.946   9.806  16.018  0.00  0.00    -0.249 N 
ATOM     36  N   UNL     1      -4.375  10.159  17.185  0.00  0.00    -0.065 NA
BRANCH  35  37
ATOM     37  C   UNL     1      -4.785  10.641  14.849  0.00  0.00    +0.178 C 
BRANCH  37  38
ATOM     38  C   UNL     1      -3.342  10.732  14.339  0.00  0.00    +0.161 C 
BRANCH  38  39
ATOM     39  O   UNL     1      -2.513  11.545  15.174  0.00  0.00    -0.388 OA
ATOM     40  H   UNL     1      -2.195  12.308  14.648  0.00  0.00    +0.210 HD
ENDBRANCH  38  39
BRANCH  38  41
ATOM     41  C   UNL     1      -2.679   9.364  14.126  0.00  0.00    +0.189 C 
BRANCH  41  42
ATOM     42  O   UNL     1      -1.451   9.488  13.410  0.00  0.00    -0.392 OA
ATOM     43  H   UNL     1      -0.816   9.967  13.975  0.00  0.00    +0.210 HD
ENDBRANCH  41  42
ENDBRANCH  38  41
ENDBRANCH  37  38
ENDBRANCH  35  37
ENDBRANCH  31  33
ENDBRANCH  30  31
ENDBRANCH  26  30
ENDBRANCH  25  28
ENDBRANCH   1  25
TORSDOF 18
