REMARK VINA RESULT:    -4.373      5.317     12.131
REMARK INTER + INTRA:         -10.790
REMARK INTER:                  -7.957
REMARK INTRA:                  -2.833
REMARK UNBOUND:                -2.966
REMARK  Name = lig_assembled_89.pdb
REMARK  19 active torsions:
REMARK  status: ('A' for Active; 'I' for Inactive)
REMARK    1  A    between atoms: _2  and  _12
REMARK    2  A    between atoms: _5  and  _20
REMARK    3  A    between atoms: _7  and  _29
REMARK    4  A    between atoms: _9  and  _10
REMARK    5  A    between atoms: _9  and  _29
REMARK    6  A    between atoms: _20  and  _21
REMARK    7  A    between atoms: _20  and  _22
REMARK    8  A    between atoms: _25  and  _45
REMARK    9  A    between atoms: _27  and  _33
REMARK   10  A    between atoms: _28  and  _32
REMARK   11  A    between atoms: _32  and  _33
REMARK   12  A    between atoms: _35  and  _36
REMARK   13  A    between atoms: _37  and  _38
REMARK   14  A    between atoms: _39  and  _41
REMARK   15  A    between atoms: _41  and  _42
REMARK   16  A    between atoms: _41  and  _43
REMARK   17  A    between atoms: _43  and  _44
REMARK   18  A    between atoms: _43  and  _45
REMARK   19  A    between atoms: _46  and  _48
REMARK                            x       y       z     vdW  Elec       q    Type
REMARK                         _______ _______ _______ _____ _____    ______ ____
ROOT
ATOM      1  C   UNL     1      -2.824   7.404  26.320  0.00  0.00    +0.401 C 
ATOM      2  O   UNL     1      -1.822   8.118  26.402  0.00  0.00    -0.226 OA
ATOM      3  N   UNL     1      -3.651   7.161  27.337  0.00  0.00    -0.279 N 
ATOM      4  H   UNL     1      -4.453   6.570  27.169  0.00  0.00    +0.152 HD
ENDROOT
BRANCH   3   5
ATOM      5  C   UNL     1      -3.463   7.704  28.688  0.00  0.00    +0.141 C 
BRANCH   5   6
ATOM      6  C   UNL     1      -4.242   8.999  28.895  0.00  0.00    +0.163 C 
BRANCH   6   7
ATOM      7  O   UNL     1      -5.206   8.830  29.946  0.00  0.00    -0.388 OA
ATOM      8  H   UNL     1      -5.713   9.639  30.050  0.00  0.00    +0.210 HD
ENDBRANCH   6   7
BRANCH   6   9
ATOM      9  C   UNL     1      -3.264  10.140  29.223  0.00  0.00    +0.175 C 
BRANCH   9  10
ATOM     10  C   UNL     1      -3.906  11.523  29.040  0.00  0.00    +0.176 C 
ATOM     11  O   UNL     1      -4.873  11.712  30.110  0.00  0.00    -0.332 OA
ATOM     12  C   UNL     1      -5.515  13.029  30.159  0.00  0.00    +0.277 C 
ATOM     13  C   UNL     1      -6.170  13.362  28.796  0.00  0.00    +0.110 C 
ATOM     14  C   UNL     1      -5.190  13.145  27.624  0.00  0.00    +0.143 C 
ATOM     15  C   UNL     1      -4.578  11.744  27.672  0.00  0.00    +0.133 C 
BRANCH  15  16
ATOM     16  N   UNL     1      -3.582  11.580  26.603  0.00  0.00    -0.308 N 
ATOM     17  H   UNL     1      -2.711  12.085  26.688  0.00  0.00    +0.149 HD
ATOM     18  C   UNL     1      -3.753  10.808  25.526  0.00  0.00    +0.210 C 
ATOM     19  C   UNL     1      -5.102  10.072  25.413  0.00  0.00    +0.109 C 
ATOM     20  O   UNL     1      -2.895  10.678  24.653  0.00  0.00    -0.276 OA
ENDBRANCH  15  16
BRANCH  12  21
ATOM     21  C   UNL     1      -4.489  14.124  30.519  0.00  0.00    +0.414 C 
ATOM     22  O   UNL     1      -4.730  15.305  30.272  0.00  0.00    -0.240 OA
ATOM     23  O   UNL     1      -3.422  13.827  31.057  0.00  0.00    -0.240 OA
ENDBRANCH  12  21
BRANCH  14  24
ATOM     24  O   UNL     1      -5.876  13.317  26.384  0.00  0.00    -0.390 OA
ATOM     25  H   UNL     1      -5.260  13.627  25.716  0.00  0.00    +0.210 HD
ENDBRANCH  14  24
BRANCH  12  26
ATOM     26  O   UNL     1      -6.556  12.984  31.168  0.00  0.00    -0.343 OA
ATOM     27  C   UNL     1      -6.295  12.086  32.277  0.00  0.00    +0.198 C 
ENDBRANCH  12  26
ENDBRANCH   9  10
BRANCH   9  28
ATOM     28  O   UNL     1      -2.080  10.030  28.408  0.00  0.00    -0.387 OA
ATOM     29  H   UNL     1      -1.963  10.838  27.903  0.00  0.00    +0.210 HD
ENDBRANCH   9  28
ENDBRANCH   6   9
ENDBRANCH   5   6
ENDBRANCH   3   5
BRANCH   1  30
ATOM     30  O   UNL     1      -3.140   6.794  25.067  0.00  0.00    -0.444 OA
BRANCH  30  31
ATOM     31  C   UNL     1      -4.478   6.290  25.105  0.00  0.00    +0.292 C 
BRANCH  31  33
ATOM     32  N   UNL     1      -6.521   6.502  23.742  0.00  0.00    -0.131 NA
ATOM     33  C   UNL     1      -5.163   6.564  23.830  0.00  0.00    +0.121 A 
ATOM     34  C   UNL     1      -4.651   6.924  22.606  0.00  0.00    +0.145 A 
ATOM     35  N   UNL     1      -5.752   7.099  21.790  0.00  0.00    -0.199 N 
ATOM     36  N   UNL     1      -6.869   6.835  22.506  0.00  0.00    -0.059 NA
BRANCH  35  37
ATOM     37  C   UNL     1      -5.725   7.578  20.447  0.00  0.00    +0.186 A 
ATOM     38  C   UNL     1      -5.537   8.860  19.971  0.00  0.00    +0.158 A 
ATOM     39  C   UNL     1      -5.436  10.137  20.608  0.00  0.00    +0.280 A 
ATOM     40  O   UNL     1      -5.851  10.339  21.742  0.00  0.00    -0.265 OA
ATOM     41  N   UNL     1      -4.854  11.154  19.826  0.00  0.00    -0.302 N 
ATOM     42  C   UNL     1      -4.813  11.030  18.386  0.00  0.00    +0.069 A 
ATOM     43  C   UNL     1      -4.508  12.106  17.540  0.00  0.00    +0.028 A 
ATOM     44  C   UNL     1      -4.528  11.962  16.146  0.00  0.00    +0.002 A 
ATOM     45  C   UNL     1      -4.842  10.738  15.566  0.00  0.00    +0.002 A 
ATOM     46  C   UNL     1      -5.137   9.646  16.375  0.00  0.00    +0.028 A 
ATOM     47  C   UNL     1      -5.130   9.799  17.769  0.00  0.00    +0.072 A 
ATOM     48  N   UNL     1      -5.431   8.719  18.614  0.00  0.00    -0.291 N 
ATOM     49  C   UNL     1      -5.669   7.400  18.319  0.00  0.00    +0.207 A 
ATOM     50  N   UNL     1      -5.840   6.677  19.406  0.00  0.00    -0.216 NA
BRANCH  41  51
ATOM     51  C   UNL     1      -4.486  12.422  20.499  0.00  0.00    +0.085 C 
ATOM     52  C   UNL     1      -3.380  12.261  21.561  0.00  0.00    +0.030 C 
ATOM     53  C   UNL     1      -5.704  13.122  21.099  0.00  0.00    +0.030 C 
ENDBRANCH  41  51
ENDBRANCH  35  37
ENDBRANCH  31  33
ENDBRANCH  30  31
ENDBRANCH   1  30
TORSDOF 15
