REMARK VINA RESULT:    -4.733      6.252      9.560
REMARK INTER + INTRA:         -11.312
REMARK INTER:                  -7.965
REMARK INTRA:                  -3.347
REMARK UNBOUND:                -2.844
REMARK  Name = lig_assembled_44.pdb
REMARK  17 active torsions:
REMARK  status: ('A' for Active; 'I' for Inactive)
REMARK    1  A    between atoms: _2  and  _9
REMARK    2  A    between atoms: _4  and  _19
REMARK    3  A    between atoms: _6  and  _7
REMARK    4  A    between atoms: _6  and  _19
REMARK    5  A    between atoms: _9  and  _10
REMARK    6  A    between atoms: _15  and  _35
REMARK    7  A    between atoms: _17  and  _23
REMARK    8  A    between atoms: _18  and  _22
REMARK    9  A    between atoms: _22  and  _23
REMARK   10  A    between atoms: _25  and  _26
REMARK   11  A    between atoms: _27  and  _28
REMARK   12  A    between atoms: _29  and  _31
REMARK   13  A    between atoms: _31  and  _32
REMARK   14  A    between atoms: _31  and  _33
REMARK   15  A    between atoms: _33  and  _34
REMARK   16  A    between atoms: _33  and  _35
REMARK   17  A    between atoms: _36  and  _38
REMARK                            x       y       z     vdW  Elec       q    Type
REMARK                         _______ _______ _______ _____ _____    ______ ____
ROOT
ATOM      1  C   UNL     1      -3.272  11.449  21.932  0.00  0.00    +0.163 C 
ENDROOT
BRANCH   1   2
ATOM      2  O   UNL     1      -2.803  12.324  22.971  0.00  0.00    -0.388 OA
ATOM      3  H   UNL     1      -1.855  12.448  22.882  0.00  0.00    +0.210 HD
ENDBRANCH   1   2
BRANCH   1   4
ATOM      4  C   UNL     1      -4.278  12.180  21.049  0.00  0.00    +0.141 C 
BRANCH   4   7
ATOM      5  C   UNL     1      -5.965  13.949  21.411  0.00  0.00    +0.401 C 
ATOM      6  O   UNL     1      -6.758  13.492  20.586  0.00  0.00    -0.226 OA
ATOM      7  N   UNL     1      -4.779  13.403  21.687  0.00  0.00    -0.279 N 
ATOM      8  H   UNL     1      -4.193  13.857  22.373  0.00  0.00    +0.152 HD
BRANCH   5   9
ATOM      9  O   UNL     1      -6.313  15.138  22.125  0.00  0.00    -0.444 OA
BRANCH   9  10
ATOM     10  C   UNL     1      -7.465  14.888  22.935  0.00  0.00    +0.292 C 
BRANCH  10  12
ATOM     11  N   UNL     1      -5.762  13.963  24.481  0.00  0.00    -0.131 NA
ATOM     12  C   UNL     1      -7.077  14.212  24.188  0.00  0.00    +0.120 A 
ATOM     13  C   UNL     1      -7.863  13.756  25.221  0.00  0.00    +0.137 A 
ATOM     14  N   UNL     1      -6.964  13.313  26.145  0.00  0.00    -0.247 N 
ATOM     15  N   UNL     1      -5.704  13.401  25.681  0.00  0.00    -0.065 NA
BRANCH  14  16
ATOM     16  C   UNL     1      -7.224  12.799  27.476  0.00  0.00    +0.180 C 
BRANCH  16  17
ATOM     17  C   UNL     1      -6.386  13.504  28.515  0.00  0.00    -0.026 A 
ATOM     18  C   UNL     1      -5.363  12.823  29.193  0.00  0.00    +0.006 A 
ATOM     19  C   UNL     1      -4.600  13.473  30.165  0.00  0.00    +0.015 A 
ATOM     20  C   UNL     1      -4.856  14.810  30.465  0.00  0.00    +0.018 A 
ATOM     21 BR   UNL     1      -3.810  15.693  31.769  0.00  0.00    -0.050 Br
ATOM     22  C   UNL     1      -5.874  15.499  29.812  0.00  0.00    +0.015 A 
ATOM     23  C   UNL     1      -6.642  14.846  28.842  0.00  0.00    +0.006 A 
ENDBRANCH  16  17
ENDBRANCH  14  16
ENDBRANCH  10  12
ENDBRANCH   9  10
ENDBRANCH   5   9
ENDBRANCH   4   7
ENDBRANCH   1   4
BRANCH   1  24
ATOM     24  C   UNL     1      -3.930  10.192  22.528  0.00  0.00    +0.175 C 
BRANCH  24  25
ATOM     25  C   UNL     1      -4.097  10.293  24.051  0.00  0.00    +0.176 C 
ATOM     26  O   UNL     1      -3.034   9.517  24.669  0.00  0.00    -0.332 OA
ATOM     27  C   UNL     1      -2.970   9.583  26.133  0.00  0.00    +0.277 C 
ATOM     28  C   UNL     1      -4.333   9.190  26.752  0.00  0.00    +0.110 C 
ATOM     29  C   UNL     1      -5.499   9.967  26.104  0.00  0.00    +0.143 C 
ATOM     30  C   UNL     1      -5.467   9.832  24.581  0.00  0.00    +0.133 C 
BRANCH  30  31
ATOM     31  N   UNL     1      -6.530  10.646  23.970  0.00  0.00    -0.308 N 
ATOM     32  H   UNL     1      -6.497  11.646  24.109  0.00  0.00    +0.149 HD
ATOM     33  C   UNL     1      -7.535  10.150  23.243  0.00  0.00    +0.210 C 
ATOM     34  C   UNL     1      -7.571   8.620  23.070  0.00  0.00    +0.109 C 
ATOM     35  O   UNL     1      -8.402  10.858  22.730  0.00  0.00    -0.276 OA
ENDBRANCH  30  31
BRANCH  27  36
ATOM     36  C   UNL     1      -2.581  11.002  26.599  0.00  0.00    +0.414 C 
ATOM     37  O   UNL     1      -2.053  11.789  25.815  0.00  0.00    -0.240 OA
ATOM     38  O   UNL     1      -2.795  11.358  27.759  0.00  0.00    -0.240 OA
ENDBRANCH  27  36
BRANCH  27  39
ATOM     39  O   UNL     1      -1.972   8.631  26.582  0.00  0.00    -0.343 OA
ATOM     40  C   UNL     1      -2.411   7.249  26.604  0.00  0.00    +0.198 C 
ENDBRANCH  27  39
BRANCH  29  41
ATOM     41  O   UNL     1      -6.743   9.467  26.595  0.00  0.00    -0.390 OA
ATOM     42  H   UNL     1      -6.787   9.596  27.545  0.00  0.00    +0.210 HD
ENDBRANCH  29  41
ENDBRANCH  24  25
BRANCH  24  43
ATOM     43  O   UNL     1      -3.160   9.021  22.189  0.00  0.00    -0.387 OA
ATOM     44  H   UNL     1      -2.907   8.561  22.992  0.00  0.00    +0.210 HD
ENDBRANCH  24  43
ENDBRANCH   1  24
TORSDOF 15
