REMARK VINA RESULT:    -4.113      2.981      4.898
REMARK INTER + INTRA:         -11.578
REMARK INTER:                  -7.795
REMARK INTRA:                  -3.783
REMARK UNBOUND:                -3.979
REMARK  Name = lig_assembled_24.pdb
REMARK  19 active torsions:
REMARK  status: ('A' for Active; 'I' for Inactive)
REMARK    1  A    between atoms: _2  and  _9
REMARK    2  A    between atoms: _4  and  _21
REMARK    3  A    between atoms: _6  and  _7
REMARK    4  A    between atoms: _6  and  _21
REMARK    5  A    between atoms: _9  and  _10
REMARK    6  A    between atoms: _13  and  _16
REMARK    7  A    between atoms: _14  and  _16
REMARK    8  A    between atoms: _17  and  _37
REMARK    9  A    between atoms: _19  and  _25
REMARK   10  A    between atoms: _20  and  _24
REMARK   11  A    between atoms: _24  and  _25
REMARK   12  A    between atoms: _27  and  _28
REMARK   13  A    between atoms: _29  and  _30
REMARK   14  A    between atoms: _31  and  _33
REMARK   15  A    between atoms: _33  and  _34
REMARK   16  A    between atoms: _33  and  _35
REMARK   17  A    between atoms: _35  and  _36
REMARK   18  A    between atoms: _35  and  _37
REMARK   19  A    between atoms: _38  and  _40
REMARK                            x       y       z     vdW  Elec       q    Type
REMARK                         _______ _______ _______ _____ _____    ______ ____
ROOT
ATOM      1  C   UNL     1      -4.055  13.017  21.994  0.00  0.00    +0.163 C 
ENDROOT
BRANCH   1   2
ATOM      2  O   UNL     1      -5.221  13.179  21.171  0.00  0.00    -0.388 OA
ATOM      3  H   UNL     1      -5.835  12.461  21.340  0.00  0.00    +0.210 HD
ENDBRANCH   1   2
BRANCH   1   4
ATOM      4  C   UNL     1      -4.446  12.723  23.452  0.00  0.00    +0.175 C 
BRANCH   4   5
ATOM      5  C   UNL     1      -5.589  13.627  23.937  0.00  0.00    +0.176 C 
ATOM      6  O   UNL     1      -5.316  14.978  23.476  0.00  0.00    -0.332 OA
ATOM      7  C   UNL     1      -6.362  15.967  23.758  0.00  0.00    +0.277 C 
ATOM      8  C   UNL     1      -6.694  15.987  25.270  0.00  0.00    +0.110 C 
ATOM      9  C   UNL     1      -6.961  14.568  25.813  0.00  0.00    +0.143 C 
ATOM     10  C   UNL     1      -5.813  13.621  25.461  0.00  0.00    +0.133 C 
BRANCH  10  11
ATOM     11  N   UNL     1      -6.118  12.253  25.908  0.00  0.00    -0.308 N 
ATOM     12  H   UNL     1      -6.853  11.752  25.427  0.00  0.00    +0.149 HD
ATOM     13  C   UNL     1      -5.488  11.629  26.906  0.00  0.00    +0.210 C 
ATOM     14  C   UNL     1      -4.391  12.427  27.635  0.00  0.00    +0.109 C 
ATOM     15  O   UNL     1      -5.755  10.476  27.249  0.00  0.00    -0.276 OA
ENDBRANCH  10  11
BRANCH   7  16
ATOM     16  C   UNL     1      -7.640  15.656  22.952  0.00  0.00    +0.414 C 
ATOM     17  O   UNL     1      -8.743  15.983  23.389  0.00  0.00    -0.240 OA
ATOM     18  O   UNL     1      -7.569  15.078  21.867  0.00  0.00    -0.240 OA
ENDBRANCH   7  16
BRANCH   7  19
ATOM     19  O   UNL     1      -5.855  17.274  23.383  0.00  0.00    -0.343 OA
ATOM     20  C   UNL     1      -4.751  17.257  22.444  0.00  0.00    +0.198 C 
ENDBRANCH   7  19
BRANCH   9  21
ATOM     21  O   UNL     1      -7.113  14.616  27.232  0.00  0.00    -0.390 OA
ATOM     22  H   UNL     1      -7.486  15.463  27.486  0.00  0.00    +0.210 HD
ENDBRANCH   9  21
ENDBRANCH   4   5
BRANCH   4  23
ATOM     23  O   UNL     1      -3.299  12.867  24.313  0.00  0.00    -0.387 OA
ATOM     24  H   UNL     1      -2.833  13.677  24.093  0.00  0.00    +0.210 HD
ENDBRANCH   4  23
ENDBRANCH   1   4
BRANCH   1  25
ATOM     25  C   UNL     1      -3.193  11.878  21.458  0.00  0.00    +0.141 C 
BRANCH  25  28
ATOM     26  C   UNL     1      -3.917   9.581  22.012  0.00  0.00    +0.401 C 
ATOM     27  O   UNL     1      -4.563   9.433  20.971  0.00  0.00    -0.226 OA
ATOM     28  N   UNL     1      -3.251  10.694  22.324  0.00  0.00    -0.279 N 
ATOM     29  H   UNL     1      -2.759  10.723  23.205  0.00  0.00    +0.152 HD
BRANCH  26  30
ATOM     30  O   UNL     1      -3.869   8.510  22.958  0.00  0.00    -0.444 OA
BRANCH  30  31
ATOM     31  C   UNL     1      -4.487   8.923  24.179  0.00  0.00    +0.292 C 
BRANCH  31  33
ATOM     32  N   UNL     1      -2.557   9.965  25.328  0.00  0.00    -0.131 NA
ATOM     33  C   UNL     1      -3.493   8.967  25.268  0.00  0.00    +0.120 A 
ATOM     34  C   UNL     1      -3.324   8.126  26.345  0.00  0.00    +0.137 A 
ATOM     35  N   UNL     1      -2.317   8.701  27.063  0.00  0.00    -0.247 N 
ATOM     36  N   UNL     1      -1.836   9.788  26.425  0.00  0.00    -0.065 NA
BRANCH  35  37
ATOM     37  C   UNL     1      -1.766   8.362  28.365  0.00  0.00    +0.180 C 
BRANCH  37  38
ATOM     38  C   UNL     1      -2.676   8.655  29.533  0.00  0.00    -0.026 A 
ATOM     39  C   UNL     1      -2.985   9.976  29.881  0.00  0.00    +0.009 A 
ATOM     40  C   UNL     1      -3.830  10.238  30.963  0.00  0.00    +0.046 A 
ATOM     41  C   UNL     1      -4.391   9.192  31.699  0.00  0.00    +0.120 A 
ATOM     42  C   UNL     1      -4.069   7.878  31.373  0.00  0.00    +0.046 A 
ATOM     43  C   UNL     1      -3.217   7.608  30.295  0.00  0.00    +0.009 A 
BRANCH  41  44
ATOM     44  O   UNL     1      -5.185   9.572  32.745  0.00  0.00    -0.495 OA
ATOM     45  C   UNL     1      -4.881   8.963  33.996  0.00  0.00    +0.277 C 
ENDBRANCH  41  44
ENDBRANCH  37  38
ENDBRANCH  35  37
ENDBRANCH  31  33
ENDBRANCH  30  31
ENDBRANCH  26  30
ENDBRANCH  25  28
ENDBRANCH   1  25
TORSDOF 16
