REMARK VINA RESULT:    -4.611      2.869      5.620
REMARK INTER + INTRA:         -11.299
REMARK INTER:                  -8.518
REMARK INTRA:                  -2.781
REMARK UNBOUND:                -3.049
REMARK  Name = lig_assembled_28.pdb
REMARK  17 active torsions:
REMARK  status: ('A' for Active; 'I' for Inactive)
REMARK    1  A    between atoms: _2  and  _9
REMARK    2  A    between atoms: _4  and  _22
REMARK    3  A    between atoms: _6  and  _7
REMARK    4  A    between atoms: _6  and  _22
REMARK    5  A    between atoms: _9  and  _10
REMARK    6  A    between atoms: _18  and  _38
REMARK    7  A    between atoms: _20  and  _26
REMARK    8  A    between atoms: _21  and  _25
REMARK    9  A    between atoms: _25  and  _26
REMARK   10  A    between atoms: _28  and  _29
REMARK   11  A    between atoms: _30  and  _31
REMARK   12  A    between atoms: _32  and  _34
REMARK   13  A    between atoms: _34  and  _35
REMARK   14  A    between atoms: _34  and  _36
REMARK   15  A    between atoms: _36  and  _37
REMARK   16  A    between atoms: _36  and  _38
REMARK   17  A    between atoms: _39  and  _41
REMARK                            x       y       z     vdW  Elec       q    Type
REMARK                         _______ _______ _______ _____ _____    ______ ____
ROOT
ATOM      1  C   UNL     1      -6.616   8.908  23.427  0.00  0.00    +0.163 C 
ENDROOT
BRANCH   1   2
ATOM      2  O   UNL     1      -6.304   8.897  24.830  0.00  0.00    -0.388 OA
ATOM      3  H   UNL     1      -7.114   8.808  25.338  0.00  0.00    +0.210 HD
ENDBRANCH   1   2
BRANCH   1   4
ATOM      4  C   UNL     1      -5.653   7.998  22.671  0.00  0.00    +0.141 C 
BRANCH   4   7
ATOM      5  C   UNL     1      -3.815   6.495  23.353  0.00  0.00    +0.401 C 
ATOM      6  O   UNL     1      -4.111   5.612  22.545  0.00  0.00    -0.226 OA
ATOM      7  N   UNL     1      -4.485   7.640  23.484  0.00  0.00    -0.279 N 
ATOM      8  H   UNL     1      -4.171   8.299  24.183  0.00  0.00    +0.152 HD
BRANCH   5   9
ATOM      9  O   UNL     1      -2.691   6.298  24.215  0.00  0.00    -0.444 OA
BRANCH   9  10
ATOM     10  C   UNL     1      -3.145   5.866  25.501  0.00  0.00    +0.292 C 
BRANCH  10  12
ATOM     11  N   UNL     1      -1.706   7.386  26.829  0.00  0.00    -0.131 NA
ATOM     12  C   UNL     1      -2.956   6.936  26.498  0.00  0.00    +0.120 A 
ATOM     13  C   UNL     1      -3.894   7.655  27.203  0.00  0.00    +0.137 A 
ATOM     14  N   UNL     1      -3.161   8.594  27.872  0.00  0.00    -0.247 N 
ATOM     15  N   UNL     1      -1.842   8.394  27.682  0.00  0.00    -0.065 NA
BRANCH  14  16
ATOM     16  C   UNL     1      -3.590   9.760  28.633  0.00  0.00    +0.180 C 
BRANCH  16  17
ATOM     17  C   UNL     1      -3.500   9.575  30.130  0.00  0.00    -0.022 A 
ATOM     18  C   UNL     1      -3.909   8.365  30.718  0.00  0.00    +0.055 A 
ATOM     19  C   UNL     1      -3.701   8.201  32.071  0.00  0.00    +0.167 A 
ATOM     20  O   UNL     1      -3.984   7.077  32.785  0.00  0.00    -0.453 OA
ATOM     21  C   UNL     1      -3.447   7.437  34.075  0.00  0.00    +0.466 C 
ATOM     22  O   UNL     1      -2.996   8.807  34.145  0.00  0.00    -0.453 OA
ATOM     23  C   UNL     1      -3.141   9.185  32.846  0.00  0.00    +0.166 A 
ATOM     24  C   UNL     1      -2.760  10.398  32.312  0.00  0.00    +0.050 A 
ATOM     25  C   UNL     1      -2.936  10.589  30.938  0.00  0.00    +0.009 A 
ENDBRANCH  16  17
ENDBRANCH  14  16
ENDBRANCH  10  12
ENDBRANCH   9  10
ENDBRANCH   5   9
ENDBRANCH   4   7
ENDBRANCH   1   4
BRANCH   1  26
ATOM     26  C   UNL     1      -6.531  10.334  22.856  0.00  0.00    +0.175 C 
BRANCH  26  27
ATOM     27  C   UNL     1      -5.210  11.026  23.223  0.00  0.00    +0.176 C 
ATOM     28  O   UNL     1      -5.273  11.393  24.628  0.00  0.00    -0.332 OA
ATOM     29  C   UNL     1      -4.048  11.975  25.187  0.00  0.00    +0.277 C 
ATOM     30  C   UNL     1      -3.598  13.195  24.347  0.00  0.00    +0.110 C 
ATOM     31  C   UNL     1      -3.547  12.862  22.841  0.00  0.00    +0.143 C 
ATOM     32  C   UNL     1      -4.870  12.260  22.367  0.00  0.00    +0.133 C 
BRANCH  32  33
ATOM     33  N   UNL     1      -4.780  11.867  20.952  0.00  0.00    -0.308 N 
ATOM     34  H   UNL     1      -4.011  11.272  20.675  0.00  0.00    +0.149 HD
ATOM     35  C   UNL     1      -5.647  12.245  20.009  0.00  0.00    +0.210 C 
ATOM     36  C   UNL     1      -6.793  13.172  20.457  0.00  0.00    +0.109 C 
ATOM     37  O   UNL     1      -5.555  11.888  18.834  0.00  0.00    -0.276 OA
ENDBRANCH  32  33
BRANCH  29  38
ATOM     38  C   UNL     1      -2.915  10.929  25.227  0.00  0.00    +0.414 C 
ATOM     39  O   UNL     1      -1.856  11.184  25.801  0.00  0.00    -0.240 OA
ATOM     40  O   UNL     1      -3.058   9.832  24.686  0.00  0.00    -0.240 OA
ENDBRANCH  29  38
BRANCH  29  41
ATOM     41  O   UNL     1      -4.341  12.429  26.533  0.00  0.00    -0.343 OA
ATOM     42  C   UNL     1      -5.745  12.667  26.807  0.00  0.00    +0.198 C 
ENDBRANCH  29  41
BRANCH  31  43
ATOM     43  O   UNL     1      -3.276  14.049  22.094  0.00  0.00    -0.390 OA
ATOM     44  H   UNL     1      -3.293  14.808  22.681  0.00  0.00    +0.210 HD
ENDBRANCH  31  43
ENDBRANCH  26  27
BRANCH  26  45
ATOM     45  O   UNL     1      -7.648  11.120  23.316  0.00  0.00    -0.387 OA
ATOM     46  H   UNL     1      -7.764  11.880  22.741  0.00  0.00    +0.210 HD
ENDBRANCH  26  45
ENDBRANCH   1  26
TORSDOF 15
