REMARK VINA RESULT:    -4.639      3.140      7.394
REMARK INTER + INTRA:         -11.080
REMARK INTER:                  -7.742
REMARK INTRA:                  -3.338
REMARK UNBOUND:                -2.779
REMARK  Name = lig_assembled_39.pdb
REMARK  17 active torsions:
REMARK  status: ('A' for Active; 'I' for Inactive)
REMARK    1  A    between atoms: _2  and  _9
REMARK    2  A    between atoms: _4  and  _19
REMARK    3  A    between atoms: _6  and  _7
REMARK    4  A    between atoms: _6  and  _19
REMARK    5  A    between atoms: _9  and  _10
REMARK    6  A    between atoms: _15  and  _35
REMARK    7  A    between atoms: _17  and  _23
REMARK    8  A    between atoms: _18  and  _22
REMARK    9  A    between atoms: _22  and  _23
REMARK   10  A    between atoms: _25  and  _26
REMARK   11  A    between atoms: _27  and  _28
REMARK   12  A    between atoms: _29  and  _31
REMARK   13  A    between atoms: _31  and  _32
REMARK   14  A    between atoms: _31  and  _33
REMARK   15  A    between atoms: _33  and  _34
REMARK   16  A    between atoms: _33  and  _35
REMARK   17  A    between atoms: _36  and  _38
REMARK                            x       y       z     vdW  Elec       q    Type
REMARK                         _______ _______ _______ _____ _____    ______ ____
ROOT
ATOM      1  C   UNL     1      -2.704  10.905  26.221  0.00  0.00    +0.163 C 
ENDROOT
BRANCH   1   2
ATOM      2  O   UNL     1      -2.024  11.869  25.402  0.00  0.00    -0.388 OA
ATOM      3  H   UNL     1      -1.179  11.510  25.118  0.00  0.00    +0.210 HD
ENDBRANCH   1   2
BRANCH   1   4
ATOM      4  C   UNL     1      -1.713   9.868  26.740  0.00  0.00    +0.141 C 
BRANCH   4   7
ATOM      5  C   UNL     1      -1.916   8.306  28.644  0.00  0.00    +0.401 C 
ATOM      6  O   UNL     1      -1.699   7.301  27.964  0.00  0.00    -0.226 OA
ATOM      7  N   UNL     1      -1.947   9.546  28.153  0.00  0.00    -0.279 N 
ATOM      8  H   UNL     1      -2.142  10.306  28.789  0.00  0.00    +0.152 HD
BRANCH   5   9
ATOM      9  O   UNL     1      -2.155   8.158  30.046  0.00  0.00    -0.444 OA
BRANCH   9  10
ATOM     10  C   UNL     1      -3.467   8.633  30.360  0.00  0.00    +0.292 C 
BRANCH  10  12
ATOM     11  N   UNL     1      -2.232  10.575  31.273  0.00  0.00    -0.131 NA
ATOM     12  C   UNL     1      -3.389   9.844  31.198  0.00  0.00    +0.120 A 
ATOM     13  C   UNL     1      -4.353  10.444  31.976  0.00  0.00    +0.137 A 
ATOM     14  N   UNL     1      -3.746  11.578  32.430  0.00  0.00    -0.247 N 
ATOM     15  N   UNL     1      -2.454  11.621  32.056  0.00  0.00    -0.065 NA
BRANCH  14  16
ATOM     16  C   UNL     1      -4.347  12.685  33.158  0.00  0.00    +0.181 C 
BRANCH  16  17
ATOM     17  C   UNL     1      -4.638  13.891  32.281  0.00  0.00    -0.012 A 
ATOM     18  C   UNL     1      -3.669  14.895  32.083  0.00  0.00    +0.006 A 
ATOM     19  C   UNL     1      -3.925  16.012  31.283  0.00  0.00    +0.000 A 
ATOM     20  C   UNL     1      -5.166  16.164  30.681  0.00  0.00    +0.001 A 
ATOM     21  C   UNL     1      -6.158  15.210  30.894  0.00  0.00    +0.015 A 
ATOM     22  C   UNL     1      -5.903  14.088  31.696  0.00  0.00    +0.023 A 
ATOM     23 BR   UNL     1      -7.351  12.884  31.961  0.00  0.00    -0.050 Br
ENDBRANCH  16  17
ENDBRANCH  14  16
ENDBRANCH  10  12
ENDBRANCH   9  10
ENDBRANCH   5   9
ENDBRANCH   4   7
ENDBRANCH   1   4
BRANCH   1  24
ATOM     24  C   UNL     1      -3.819  10.199  25.430  0.00  0.00    +0.175 C 
BRANCH  24  25
ATOM     25  C   UNL     1      -4.887  11.183  24.933  0.00  0.00    +0.176 C 
ATOM     26  O   UNL     1      -4.320  11.936  23.825  0.00  0.00    -0.332 OA
ATOM     27  C   UNL     1      -5.239  12.858  23.150  0.00  0.00    +0.277 C 
ATOM     28  C   UNL     1      -5.877  13.831  24.172  0.00  0.00    +0.110 C 
ATOM     29  C   UNL     1      -6.465  13.078  25.384  0.00  0.00    +0.143 C 
ATOM     30  C   UNL     1      -5.427  12.146  26.007  0.00  0.00    +0.133 C 
BRANCH  30  31
ATOM     31  N   UNL     1      -6.024  11.370  27.106  0.00  0.00    -0.308 N 
ATOM     32  H   UNL     1      -6.744  10.700  26.874  0.00  0.00    +0.149 HD
ATOM     33  C   UNL     1      -5.678  11.495  28.390  0.00  0.00    +0.210 C 
ATOM     34  C   UNL     1      -4.597  12.543  28.715  0.00  0.00    +0.109 C 
ATOM     35  O   UNL     1      -6.185  10.821  29.288  0.00  0.00    -0.276 OA
ENDBRANCH  30  31
BRANCH  27  36
ATOM     36  C   UNL     1      -6.350  12.082  22.413  0.00  0.00    +0.414 C 
ATOM     37  O   UNL     1      -6.138  10.945  21.993  0.00  0.00    -0.240 OA
ATOM     38  O   UNL     1      -7.457  12.592  22.239  0.00  0.00    -0.240 OA
ENDBRANCH  27  36
BRANCH  27  39
ATOM     39  O   UNL     1      -4.471  13.636  22.195  0.00  0.00    -0.343 OA
ATOM     40  C   UNL     1      -4.537  15.073  22.383  0.00  0.00    +0.198 C 
ENDBRANCH  27  39
BRANCH  29  41
ATOM     41  O   UNL     1      -6.906  14.017  26.366  0.00  0.00    -0.390 OA
ATOM     42  H   UNL     1      -7.106  13.555  27.184  0.00  0.00    +0.210 HD
ENDBRANCH  29  41
ENDBRANCH  24  25
BRANCH  24  43
ATOM     43  O   UNL     1      -4.427   9.172  26.238  0.00  0.00    -0.387 OA
ATOM     44  H   UNL     1      -4.067   8.316  25.994  0.00  0.00    +0.210 HD
ENDBRANCH  24  43
ENDBRANCH   1  24
TORSDOF 15
