REMARK VINA RESULT:    -4.657      5.775     10.569
REMARK INTER + INTRA:         -11.124
REMARK INTER:                  -8.695
REMARK INTRA:                  -2.430
REMARK UNBOUND:                -2.792
REMARK  Name = lig_assembled_5.pdb
REMARK  18 active torsions:
REMARK  status: ('A' for Active; 'I' for Inactive)
REMARK    1  A    between atoms: _2  and  _9
REMARK    2  A    between atoms: _4  and  _20
REMARK    3  A    between atoms: _6  and  _7
REMARK    4  A    between atoms: _6  and  _20
REMARK    5  A    between atoms: _12  and  _15
REMARK    6  A    between atoms: _13  and  _15
REMARK    7  A    between atoms: _16  and  _36
REMARK    8  A    between atoms: _18  and  _24
REMARK    9  A    between atoms: _19  and  _23
REMARK   10  A    between atoms: _23  and  _24
REMARK   11  A    between atoms: _26  and  _27
REMARK   12  A    between atoms: _28  and  _29
REMARK   13  A    between atoms: _30  and  _32
REMARK   14  A    between atoms: _32  and  _33
REMARK   15  A    between atoms: _32  and  _34
REMARK   16  A    between atoms: _34  and  _35
REMARK   17  A    between atoms: _34  and  _36
REMARK   18  A    between atoms: _37  and  _39
REMARK                            x       y       z     vdW  Elec       q    Type
REMARK                         _______ _______ _______ _____ _____    ______ ____
ROOT
ATOM      1  C   UNL     1      -2.918  13.101  13.350  0.00  0.00    +0.163 C 
ENDROOT
BRANCH   1   2
ATOM      2  O   UNL     1      -2.909  12.473  14.642  0.00  0.00    -0.388 OA
ATOM      3  H   UNL     1      -3.591  12.864  15.194  0.00  0.00    +0.210 HD
ENDBRANCH   1   2
BRANCH   1   4
ATOM      4  C   UNL     1      -4.269  13.762  13.100  0.00  0.00    +0.141 C 
BRANCH   4   7
ATOM      5  C   UNL     1      -6.235  12.413  13.749  0.00  0.00    +0.401 C 
ATOM      6  O   UNL     1      -6.363  11.893  12.638  0.00  0.00    -0.226 OA
ATOM      7  N   UNL     1      -5.288  13.301  14.052  0.00  0.00    -0.279 N 
ATOM      8  H   UNL     1      -5.270  13.679  14.988  0.00  0.00    +0.152 HD
BRANCH   5   9
ATOM      9  O   UNL     1      -7.149  12.059  14.790  0.00  0.00    -0.444 OA
BRANCH   9  10
ATOM     10  C   UNL     1      -6.645  10.928  15.505  0.00  0.00    +0.292 C 
BRANCH  10  12
ATOM     11  N   UNL     1      -7.197  12.147  17.587  0.00  0.00    -0.131 NA
ATOM     12  C   UNL     1      -6.380  11.288  16.912  0.00  0.00    +0.121 A 
ATOM     13  C   UNL     1      -5.371  10.875  17.750  0.00  0.00    +0.143 A 
ATOM     14  N   UNL     1      -5.631  11.493  18.952  0.00  0.00    -0.220 N 
ATOM     15  N   UNL     1      -6.733  12.273  18.822  0.00  0.00    -0.060 NA
BRANCH  14  16
ATOM     16  C   UNL     1      -4.937  11.369  20.184  0.00  0.00    +0.067 A 
ATOM     17  C   UNL     1      -3.754  12.080  20.415  0.00  0.00    +0.031 A 
ATOM     18  C   UNL     1      -3.053  11.897  21.609  0.00  0.00    +0.048 A 
ATOM     19  C   UNL     1      -3.527  11.026  22.592  0.00  0.00    +0.120 A 
ATOM     20  C   UNL     1      -4.713  10.329  22.372  0.00  0.00    +0.048 A 
ATOM     21  C   UNL     1      -5.418  10.497  21.172  0.00  0.00    +0.031 A 
BRANCH  19  22
ATOM     22  O   UNL     1      -2.714  10.894  23.683  0.00  0.00    -0.495 OA
ATOM     23  C   UNL     1      -3.351  10.554  24.907  0.00  0.00    +0.277 C 
ENDBRANCH  19  22
ENDBRANCH  14  16
ENDBRANCH  10  12
ENDBRANCH   9  10
ENDBRANCH   5   9
ENDBRANCH   4   7
ENDBRANCH   1   4
BRANCH   1  24
ATOM     24  C   UNL     1      -2.633  12.077  12.238  0.00  0.00    +0.175 C 
BRANCH  24  25
ATOM     25  C   UNL     1      -3.001  10.647  12.661  0.00  0.00    +0.176 C 
ATOM     26  O   UNL     1      -1.889  10.108  13.427  0.00  0.00    -0.332 OA
ATOM     27  C   UNL     1      -2.105   8.779  14.008  0.00  0.00    +0.277 C 
ATOM     28  C   UNL     1      -2.523   7.770  12.910  0.00  0.00    +0.110 C 
ATOM     29  C   UNL     1      -3.682   8.313  12.049  0.00  0.00    +0.143 C 
ATOM     30  C   UNL     1      -3.352   9.701  11.498  0.00  0.00    +0.133 C 
BRANCH  30  31
ATOM     31  N   UNL     1      -4.498  10.245  10.752  0.00  0.00    -0.308 N 
ATOM     32  H   UNL     1      -5.360  10.396  11.256  0.00  0.00    +0.149 HD
ATOM     33  C   UNL     1      -4.473  10.551   9.452  0.00  0.00    +0.210 C 
ATOM     34  C   UNL     1      -3.152  10.284   8.706  0.00  0.00    +0.109 C 
ATOM     35  O   UNL     1      -5.444  11.019   8.856  0.00  0.00    -0.276 OA
ENDBRANCH  30  31
BRANCH  27  36
ATOM     36  C   UNL     1      -3.191   8.830  15.102  0.00  0.00    +0.414 C 
ATOM     37  O   UNL     1      -4.004   7.913  15.213  0.00  0.00    -0.240 OA
ATOM     38  O   UNL     1      -3.255   9.788  15.874  0.00  0.00    -0.240 OA
ENDBRANCH  27  36
BRANCH  27  39
ATOM     39  O   UNL     1      -0.851   8.333  14.586  0.00  0.00    -0.343 OA
ATOM     40  C   UNL     1      -0.972   7.275  15.571  0.00  0.00    +0.198 C 
ENDBRANCH  27  39
BRANCH  29  41
ATOM     41  O   UNL     1      -3.933   7.423  10.961  0.00  0.00    -0.390 OA
ATOM     42  H   UNL     1      -3.339   7.628  10.236  0.00  0.00    +0.210 HD
ENDBRANCH  29  41
ENDBRANCH  24  25
BRANCH  24  43
ATOM     43  O   UNL     1      -1.246  12.139  11.849  0.00  0.00    -0.387 OA
ATOM     44  H   UNL     1      -0.867  12.969  12.146  0.00  0.00    +0.210 HD
ENDBRANCH  24  43
ENDBRANCH   1  24
TORSDOF 15
