REMARK VINA RESULT:    -5.056      6.025     10.134
REMARK INTER + INTRA:         -11.592
REMARK INTER:                  -8.429
REMARK INTRA:                  -3.163
REMARK UNBOUND:                -2.841
REMARK  Name = lig_assembled_86.pdb
REMARK  17 active torsions:
REMARK  status: ('A' for Active; 'I' for Inactive)
REMARK    1  A    between atoms: _2  and  _10
REMARK    2  A    between atoms: _3  and  _13
REMARK    3  A    between atoms: _5  and  _21
REMARK    4  A    between atoms: _7  and  _8
REMARK    5  A    between atoms: _7  and  _21
REMARK    6  A    between atoms: _17  and  _37
REMARK    7  A    between atoms: _19  and  _25
REMARK    8  A    between atoms: _20  and  _24
REMARK    9  A    between atoms: _24  and  _25
REMARK   10  A    between atoms: _27  and  _28
REMARK   11  A    between atoms: _29  and  _30
REMARK   12  A    between atoms: _31  and  _33
REMARK   13  A    between atoms: _33  and  _34
REMARK   14  A    between atoms: _33  and  _35
REMARK   15  A    between atoms: _35  and  _36
REMARK   16  A    between atoms: _35  and  _37
REMARK   17  A    between atoms: _38  and  _40
REMARK                            x       y       z     vdW  Elec       q    Type
REMARK                         _______ _______ _______ _____ _____    ______ ____
ROOT
ATOM      1  C   UNL     1      -6.322   8.588  23.001  0.00  0.00    +0.163 C 
ENDROOT
BRANCH   1   2
ATOM      2  O   UNL     1      -6.219   8.870  24.406  0.00  0.00    -0.388 OA
ATOM      3  H   UNL     1      -6.634   9.715  24.595  0.00  0.00    +0.210 HD
ENDBRANCH   1   2
BRANCH   1   4
ATOM      4  C   UNL     1      -5.241   7.595  22.587  0.00  0.00    +0.141 C 
BRANCH   4   7
ATOM      5  C   UNL     1      -3.484   6.257  23.696  0.00  0.00    +0.401 C 
ATOM      6  O   UNL     1      -3.401   5.435  22.781  0.00  0.00    -0.226 OA
ATOM      7  N   UNL     1      -4.322   7.295  23.691  0.00  0.00    -0.279 N 
ATOM      8  H   UNL     1      -4.324   7.910  24.493  0.00  0.00    +0.152 HD
BRANCH   5   9
ATOM      9  O   UNL     1      -2.644   6.107  24.843  0.00  0.00    -0.444 OA
BRANCH   9  10
ATOM     10  C   UNL     1      -3.437   6.195  26.030  0.00  0.00    +0.292 C 
BRANCH  10  12
ATOM     11  N   UNL     1      -1.634   7.716  26.795  0.00  0.00    -0.131 NA
ATOM     12  C   UNL     1      -2.921   7.260  26.910  0.00  0.00    +0.120 A 
ATOM     13  C   UNL     1      -3.553   7.959  27.912  0.00  0.00    +0.137 A 
ATOM     14  N   UNL     1      -2.613   8.845  28.341  0.00  0.00    -0.248 N 
ATOM     15  N   UNL     1      -1.449   8.677  27.690  0.00  0.00    -0.065 NA
BRANCH  14  16
ATOM     16  C   UNL     1      -2.771   9.876  29.356  0.00  0.00    +0.112 C 
ATOM     17  C   UNL     1      -3.566  11.087  28.827  0.00  0.00    +0.045 C 
ATOM     18  C   UNL     1      -4.663  11.592  29.769  0.00  0.00    +0.059 C 
ATOM     19  C   UNL     1      -5.890  10.676  29.730  0.00  0.00    +0.020 C 
ATOM     20  C   UNL     1      -5.676   9.697  30.882  0.00  0.00    +0.020 C 
ATOM     21  C   UNL     1      -4.303  10.067  31.449  0.00  0.00    +0.059 C 
ATOM     22  N   UNL     1      -4.283  11.504  31.178  0.00  0.00    -0.299 NA
ATOM     23  C   UNL     1      -3.086  12.220  31.580  0.00  0.00    +0.105 C 
ATOM     24  C   UNL     1      -3.180   9.304  30.733  0.00  0.00    +0.045 C 
ENDBRANCH  14  16
ENDBRANCH  10  12
ENDBRANCH   9  10
ENDBRANCH   5   9
ENDBRANCH   4   7
ENDBRANCH   1   4
BRANCH   1  25
ATOM     25  C   UNL     1      -6.182   9.875  22.170  0.00  0.00    +0.175 C 
BRANCH  25  26
ATOM     26  C   UNL     1      -4.938  10.685  22.564  0.00  0.00    +0.176 C 
ATOM     27  O   UNL     1      -5.247  11.416  23.782  0.00  0.00    -0.332 OA
ATOM     28  C   UNL     1      -4.135  12.169  24.369  0.00  0.00    +0.277 C 
ATOM     29  C   UNL     1      -3.520  13.131  23.323  0.00  0.00    +0.110 C 
ATOM     30  C   UNL     1      -3.203  12.404  21.999  0.00  0.00    +0.143 C 
ATOM     31  C   UNL     1      -4.428  11.652  21.479  0.00  0.00    +0.133 C 
BRANCH  31  32
ATOM     32  N   UNL     1      -4.090  10.894  20.264  0.00  0.00    -0.308 N 
ATOM     33  H   UNL     1      -3.311  10.252  20.310  0.00  0.00    +0.149 HD
ATOM     34  C   UNL     1      -4.746  10.997  19.105  0.00  0.00    +0.210 C 
ATOM     35  C   UNL     1      -5.913  12.002  19.060  0.00  0.00    +0.109 C 
ATOM     36  O   UNL     1      -4.450  10.339  18.108  0.00  0.00    -0.276 OA
ENDBRANCH  31  32
BRANCH  28  37
ATOM     37  C   UNL     1      -3.044  11.212  24.894  0.00  0.00    +0.414 C 
ATOM     38  O   UNL     1      -3.205   9.994  24.829  0.00  0.00    -0.240 OA
ATOM     39  O   UNL     1      -2.005  11.658  25.382  0.00  0.00    -0.240 OA
ENDBRANCH  28  37
BRANCH  30  40
ATOM     40  O   UNL     1      -2.782  13.353  21.018  0.00  0.00    -0.390 OA
ATOM     41  H   UNL     1      -2.191  13.992  21.422  0.00  0.00    +0.210 HD
ENDBRANCH  30  40
BRANCH  28  42
ATOM     42  O   UNL     1      -4.659  12.961  25.466  0.00  0.00    -0.343 OA
ATOM     43  C   UNL     1      -5.856  12.430  26.088  0.00  0.00    +0.198 C 
ENDBRANCH  28  42
ENDBRANCH  25  26
BRANCH  25  44
ATOM     44  O   UNL     1      -7.366  10.686  22.307  0.00  0.00    -0.387 OA
ATOM     45  H   UNL     1      -8.139  10.119  22.360  0.00  0.00    +0.210 HD
ENDBRANCH  25  44
ENDBRANCH   1  25
TORSDOF 14
