REMARK VINA RESULT:    -4.951      2.209      2.532
REMARK INTER + INTRA:         -11.860
REMARK INTER:                  -9.222
REMARK INTRA:                  -2.638
REMARK UNBOUND:                -2.711
REMARK  Name = lig_assembled_36.pdb
REMARK  18 active torsions:
REMARK  status: ('A' for Active; 'I' for Inactive)
REMARK    1  A    between atoms: _2  and  _10
REMARK    2  A    between atoms: _5  and  _21
REMARK    3  A    between atoms: _7  and  _8
REMARK    4  A    between atoms: _7  and  _21
REMARK    5  A    between atoms: _10  and  _11
REMARK    6  A    between atoms: _14  and  _15
REMARK    7  A    between atoms: _17  and  _37
REMARK    8  A    between atoms: _19  and  _25
REMARK    9  A    between atoms: _20  and  _24
REMARK   10  A    between atoms: _24  and  _25
REMARK   11  A    between atoms: _27  and  _28
REMARK   12  A    between atoms: _29  and  _30
REMARK   13  A    between atoms: _31  and  _33
REMARK   14  A    between atoms: _33  and  _34
REMARK   15  A    between atoms: _33  and  _35
REMARK   16  A    between atoms: _35  and  _36
REMARK   17  A    between atoms: _35  and  _37
REMARK   18  A    between atoms: _38  and  _40
REMARK                            x       y       z     vdW  Elec       q    Type
REMARK                         _______ _______ _______ _____ _____    ______ ____
ROOT
ATOM      1  C   UNL     1      -3.205  11.822  25.109  0.00  0.00    +0.163 C 
ENDROOT
BRANCH   1   2
ATOM      2  O   UNL     1      -2.093  10.914  25.049  0.00  0.00    -0.388 OA
ATOM      3  H   UNL     1      -2.415  10.010  25.083  0.00  0.00    +0.210 HD
ENDBRANCH   1   2
BRANCH   1   4
ATOM      4  C   UNL     1      -3.565  12.155  26.567  0.00  0.00    +0.175 C 
BRANCH   4   5
ATOM      5  C   UNL     1      -3.381  10.947  27.498  0.00  0.00    +0.176 C 
ATOM      6  O   UNL     1      -4.019   9.800  26.873  0.00  0.00    -0.332 OA
ATOM      7  C   UNL     1      -3.852   8.523  27.574  0.00  0.00    +0.277 C 
ATOM      8  C   UNL     1      -4.323   8.647  29.044  0.00  0.00    +0.110 C 
ATOM      9  C   UNL     1      -3.695   9.872  29.741  0.00  0.00    +0.143 C 
ATOM     10  C   UNL     1      -3.925  11.145  28.925  0.00  0.00    +0.133 C 
BRANCH  10  11
ATOM     11  N   UNL     1      -3.248  12.290  29.555  0.00  0.00    -0.308 N 
ATOM     12  H   UNL     1      -2.239  12.274  29.602  0.00  0.00    +0.149 HD
ATOM     13  C   UNL     1      -3.881  13.348  30.069  0.00  0.00    +0.210 C 
ATOM     14  C   UNL     1      -5.420  13.330  30.005  0.00  0.00    +0.109 C 
ATOM     15  O   UNL     1      -3.287  14.300  30.577  0.00  0.00    -0.276 OA
ENDBRANCH  10  11
BRANCH   7  16
ATOM     16  C   UNL     1      -2.378   8.068  27.541  0.00  0.00    +0.414 C 
ATOM     17  O   UNL     1      -1.688   8.277  26.544  0.00  0.00    -0.240 OA
ATOM     18  O   UNL     1      -1.880   7.494  28.510  0.00  0.00    -0.240 OA
ENDBRANCH   7  16
BRANCH   7  19
ATOM     19  O   UNL     1      -4.683   7.535  26.910  0.00  0.00    -0.343 OA
ATOM     20  C   UNL     1      -6.109   7.791  26.975  0.00  0.00    +0.198 C 
ENDBRANCH   7  19
BRANCH   9  21
ATOM     21  O   UNL     1      -4.269  10.035  31.039  0.00  0.00    -0.390 OA
ATOM     22  H   UNL     1      -4.635   9.198  31.335  0.00  0.00    +0.210 HD
ENDBRANCH   9  21
ENDBRANCH   4   5
BRANCH   4  23
ATOM     23  O   UNL     1      -4.920  12.640  26.646  0.00  0.00    -0.387 OA
ATOM     24  H   UNL     1      -5.435  12.271  25.924  0.00  0.00    +0.210 HD
ENDBRANCH   4  23
ENDBRANCH   1   4
BRANCH   1  25
ATOM     25  C   UNL     1      -2.870  13.108  24.361  0.00  0.00    +0.141 C 
BRANCH  25  28
ATOM     26  C   UNL     1      -4.912  13.945  23.250  0.00  0.00    +0.401 C 
ATOM     27  O   UNL     1      -5.391  14.422  24.281  0.00  0.00    -0.226 OA
ATOM     28  N   UNL     1      -3.742  13.307  23.197  0.00  0.00    -0.279 N 
ATOM     29  H   UNL     1      -3.438  12.942  22.306  0.00  0.00    +0.152 HD
BRANCH  26  30
ATOM     30  O   UNL     1      -5.641  14.065  22.026  0.00  0.00    -0.444 OA
BRANCH  30  31
ATOM     31  C   UNL     1      -6.385  12.866  21.793  0.00  0.00    +0.292 C 
BRANCH  31  33
ATOM     32  N   UNL     1      -4.649  11.348  20.888  0.00  0.00    -0.131 NA
ATOM     33  C   UNL     1      -5.780  12.095  20.691  0.00  0.00    +0.120 A 
ATOM     34  C   UNL     1      -6.191  11.955  19.384  0.00  0.00    +0.137 A 
ATOM     35  N   UNL     1      -5.323  11.037  18.868  0.00  0.00    -0.247 N 
ATOM     36  N   UNL     1      -4.366  10.717  19.757  0.00  0.00    -0.065 NA
BRANCH  35  37
ATOM     37  C   UNL     1      -5.356  10.415  17.559  0.00  0.00    +0.180 C 
BRANCH  37  38
ATOM     38  C   UNL     1      -5.170  11.438  16.462  0.00  0.00    -0.026 A 
ATOM     39  C   UNL     1      -6.160  11.637  15.488  0.00  0.00    +0.007 A 
ATOM     40  C   UNL     1      -5.982  12.589  14.479  0.00  0.00    +0.019 A 
ATOM     41  C   UNL     1      -4.810  13.351  14.428  0.00  0.00    +0.052 A 
ATOM     42  C   UNL     1      -3.809  13.142  15.380  0.00  0.00    +0.019 A 
ATOM     43  C   UNL     1      -3.987  12.189  16.388  0.00  0.00    +0.007 A 
BRANCH  41  44
ATOM     44  C   UNL     1      -4.638  14.343  13.404  0.00  0.00    +0.099 C 
ATOM     45  N   UNL     1      -4.505  15.152  12.583  0.00  0.00    -0.191 NA
ENDBRANCH  41  44
ENDBRANCH  37  38
ENDBRANCH  35  37
ENDBRANCH  31  33
ENDBRANCH  30  31
ENDBRANCH  26  30
ENDBRANCH  25  28
ENDBRANCH   1  25
TORSDOF 16
