REMARK VINA RESULT:    -5.456      4.125     12.492
REMARK INTER + INTRA:         -11.919
REMARK INTER:                  -9.408
REMARK INTRA:                  -2.511
REMARK UNBOUND:                -2.475
REMARK  Name = lig_assembled_25.pdb
REMARK  16 active torsions:
REMARK  status: ('A' for Active; 'I' for Inactive)
REMARK    1  A    between atoms: _2  and  _9
REMARK    2  A    between atoms: _4  and  _25
REMARK    3  A    between atoms: _6  and  _7
REMARK    4  A    between atoms: _6  and  _25
REMARK    5  A    between atoms: _21  and  _41
REMARK    6  A    between atoms: _23  and  _29
REMARK    7  A    between atoms: _24  and  _28
REMARK    8  A    between atoms: _28  and  _29
REMARK    9  A    between atoms: _31  and  _32
REMARK   10  A    between atoms: _33  and  _34
REMARK   11  A    between atoms: _35  and  _37
REMARK   12  A    between atoms: _37  and  _38
REMARK   13  A    between atoms: _37  and  _39
REMARK   14  A    between atoms: _39  and  _40
REMARK   15  A    between atoms: _39  and  _41
REMARK   16  A    between atoms: _42  and  _44
REMARK                            x       y       z     vdW  Elec       q    Type
REMARK                         _______ _______ _______ _____ _____    ______ ____
ROOT
ATOM      1  C   UNL     1      -6.495  10.511  17.932  0.00  0.00    +0.141 C 
ENDROOT
BRANCH   1   4
ATOM      2  C   UNL     1      -4.789  10.700  19.709  0.00  0.00    +0.401 C 
ATOM      3  O   UNL     1      -4.573  11.897  19.505  0.00  0.00    -0.226 OA
ATOM      4  N   UNL     1      -5.666   9.972  19.016  0.00  0.00    -0.279 N 
ATOM      5  H   UNL     1      -5.765   8.995  19.252  0.00  0.00    +0.152 HD
BRANCH   2   6
ATOM      6  O   UNL     1      -4.063  10.030  20.742  0.00  0.00    -0.444 OA
BRANCH   6   7
ATOM      7  C   UNL     1      -3.155  10.946  21.360  0.00  0.00    +0.292 C 
BRANCH   7   9
ATOM      8  N   UNL     1      -2.595  11.777  23.617  0.00  0.00    -0.131 NA
ATOM      9  C   UNL     1      -3.379  10.991  22.817  0.00  0.00    +0.120 A 
ATOM     10  C   UNL     1      -4.294  10.322  23.600  0.00  0.00    +0.138 A 
ATOM     11  N   UNL     1      -4.005  10.728  24.873  0.00  0.00    -0.240 N 
ATOM     12  N   UNL     1      -2.986  11.614  24.873  0.00  0.00    -0.064 NA
BRANCH  11  13
ATOM     13  C   UNL     1      -4.562  10.288  26.141  0.00  0.00    +0.170 C 
ATOM     14  C   UNL     1      -4.822  11.446  27.095  0.00  0.00    -0.011 A 
ATOM     15  C   UNL     1      -4.149  11.224  28.318  0.00  0.00    -0.012 A 
ATOM     16  C   UNL     1      -3.423   9.973  28.235  0.00  0.00    -0.012 A 
ATOM     17  C   UNL     1      -2.653   9.320  29.183  0.00  0.00    +0.009 A 
ATOM     18  C   UNL     1      -2.083   8.089  28.843  0.00  0.00    +0.001 A 
ATOM     19  C   UNL     1      -2.281   7.531  27.569  0.00  0.00    +0.000 A 
ATOM     20  C   UNL     1      -3.057   8.188  26.611  0.00  0.00    +0.006 A 
ATOM     21  C   UNL     1      -4.257  12.137  29.353  0.00  0.00    +0.009 A 
ATOM     22  C   UNL     1      -5.046  13.275  29.158  0.00  0.00    +0.001 A 
ATOM     23  C   UNL     1      -5.716  13.489  27.943  0.00  0.00    +0.000 A 
ATOM     24  C   UNL     1      -5.612  12.570  26.898  0.00  0.00    +0.006 A 
ATOM     25  C   UNL     1      -3.621   9.408  26.954  0.00  0.00    -0.011 A 
ENDBRANCH  11  13
ENDBRANCH   7   9
ENDBRANCH   6   7
ENDBRANCH   2   6
ENDBRANCH   1   4
BRANCH   1  26
ATOM     26  C   UNL     1      -5.769  10.479  16.591  0.00  0.00    +0.163 C 
BRANCH  26  27
ATOM     27  O   UNL     1      -4.992  11.677  16.423  0.00  0.00    -0.388 OA
ATOM     28  H   UNL     1      -4.198  11.621  16.960  0.00  0.00    +0.210 HD
ENDBRANCH  26  27
BRANCH  26  29
ATOM     29  C   UNL     1      -4.875   9.229  16.521  0.00  0.00    +0.175 C 
BRANCH  29  30
ATOM     30  C   UNL     1      -3.922   9.267  15.316  0.00  0.00    +0.176 C 
ATOM     31  O   UNL     1      -4.646   9.839  14.192  0.00  0.00    -0.332 OA
ATOM     32  C   UNL     1      -3.858  10.052  12.974  0.00  0.00    +0.277 C 
ATOM     33  C   UNL     1      -3.169   8.736  12.538  0.00  0.00    +0.110 C 
ATOM     34  C   UNL     1      -2.413   8.073  13.709  0.00  0.00    +0.143 C 
ATOM     35  C   UNL     1      -3.325   7.902  14.924  0.00  0.00    +0.133 C 
BRANCH  35  36
ATOM     36  N   UNL     1      -2.571   7.351  16.061  0.00  0.00    -0.308 N 
ATOM     37  H   UNL     1      -1.816   7.906  16.439  0.00  0.00    +0.149 HD
ATOM     38  C   UNL     1      -2.819   6.166  16.625  0.00  0.00    +0.210 C 
ATOM     39  C   UNL     1      -3.959   5.333  16.008  0.00  0.00    +0.109 C 
ATOM     40  O   UNL     1      -2.180   5.736  17.585  0.00  0.00    -0.276 OA
ENDBRANCH  35  36
BRANCH  32  41
ATOM     41  C   UNL     1      -2.791  11.143  13.196  0.00  0.00    +0.414 C 
ATOM     42  O   UNL     1      -1.785  11.180  12.489  0.00  0.00    -0.240 OA
ATOM     43  O   UNL     1      -2.936  11.987  14.082  0.00  0.00    -0.240 OA
ENDBRANCH  32  41
BRANCH  34  44
ATOM     44  O   UNL     1      -1.924   6.794  13.304  0.00  0.00    -0.390 OA
ATOM     45  H   UNL     1      -2.592   6.127  13.473  0.00  0.00    +0.210 HD
ENDBRANCH  34  44
BRANCH  32  46
ATOM     46  O   UNL     1      -4.766  10.464  11.919  0.00  0.00    -0.343 OA
ATOM     47  C   UNL     1      -6.082  10.872  12.369  0.00  0.00    +0.198 C 
ENDBRANCH  32  46
ENDBRANCH  29  30
BRANCH  29  48
ATOM     48  O   UNL     1      -5.687   8.039  16.475  0.00  0.00    -0.387 OA
ATOM     49  H   UNL     1      -6.396   8.160  15.838  0.00  0.00    +0.210 HD
ENDBRANCH  29  48
ENDBRANCH  26  29
ENDBRANCH   1  26
TORSDOF 14
