REMARK VINA RESULT:    -3.810      2.259      6.890
REMARK INTER + INTRA:         -11.036
REMARK INTER:                  -7.762
REMARK INTRA:                  -3.273
REMARK UNBOUND:                -4.108
REMARK  Name = lig_assembled_53.pdb
REMARK  18 active torsions:
REMARK  status: ('A' for Active; 'I' for Inactive)
REMARK    1  A    between atoms: _2  and  _9
REMARK    2  A    between atoms: _4  and  _16
REMARK    3  A    between atoms: _5  and  _9
REMARK    4  A    between atoms: _5  and  _10
REMARK    5  A    between atoms: _6  and  _7
REMARK    6  A    between atoms: _6  and  _16
REMARK    7  A    between atoms: _12  and  _32
REMARK    8  A    between atoms: _14  and  _20
REMARK    9  A    between atoms: _15  and  _19
REMARK   10  A    between atoms: _19  and  _20
REMARK   11  A    between atoms: _22  and  _23
REMARK   12  A    between atoms: _24  and  _25
REMARK   13  A    between atoms: _26  and  _28
REMARK   14  A    between atoms: _28  and  _29
REMARK   15  A    between atoms: _28  and  _30
REMARK   16  A    between atoms: _30  and  _31
REMARK   17  A    between atoms: _30  and  _32
REMARK   18  A    between atoms: _33  and  _35
REMARK                            x       y       z     vdW  Elec       q    Type
REMARK                         _______ _______ _______ _____ _____    ______ ____
ROOT
ATOM      1  C   UNL     1      -6.836  10.341  22.916  0.00  0.00    +0.175 C 
ENDROOT
BRANCH   1   2
ATOM      2  C   UNL     1      -5.490  11.013  23.223  0.00  0.00    +0.176 C 
ATOM      3  O   UNL     1      -5.466  11.341  24.640  0.00  0.00    -0.332 OA
ATOM      4  C   UNL     1      -4.207  11.898  25.141  0.00  0.00    +0.277 C 
ATOM      5  C   UNL     1      -3.795  13.138  24.310  0.00  0.00    +0.110 C 
ATOM      6  C   UNL     1      -3.835  12.847  22.795  0.00  0.00    +0.143 C 
ATOM      7  C   UNL     1      -5.189  12.268  22.383  0.00  0.00    +0.133 C 
BRANCH   7   8
ATOM      8  N   UNL     1      -5.186  11.914  20.955  0.00  0.00    -0.308 N 
ATOM      9  H   UNL     1      -4.470  11.281  20.628  0.00  0.00    +0.149 HD
ATOM     10  C   UNL     1      -6.066  12.376  20.063  0.00  0.00    +0.210 C 
ATOM     11  C   UNL     1      -7.128  13.361  20.588  0.00  0.00    +0.109 C 
ATOM     12  O   UNL     1      -6.048  12.051  18.875  0.00  0.00    -0.276 OA
ENDBRANCH   7   8
BRANCH   4  13
ATOM     13  C   UNL     1      -3.082  10.844  25.085  0.00  0.00    +0.414 C 
ATOM     14  O   UNL     1      -1.958  11.113  25.507  0.00  0.00    -0.240 OA
ATOM     15  O   UNL     1      -3.298   9.724  24.619  0.00  0.00    -0.240 OA
ENDBRANCH   4  13
BRANCH   4  16
ATOM     16  O   UNL     1      -4.416  12.317  26.514  0.00  0.00    -0.343 OA
ATOM     17  C   UNL     1      -5.665  13.011  26.759  0.00  0.00    +0.198 C 
ENDBRANCH   4  16
BRANCH   6  18
ATOM     18  O   UNL     1      -3.598  14.052  22.067  0.00  0.00    -0.390 OA
ATOM     19  H   UNL     1      -3.942  14.799  22.562  0.00  0.00    +0.210 HD
ENDBRANCH   6  18
ENDBRANCH   1   2
BRANCH   1  20
ATOM     20  O   UNL     1      -7.917  11.118  23.470  0.00  0.00    -0.387 OA
ATOM     21  H   UNL     1      -8.722  10.595  23.465  0.00  0.00    +0.210 HD
ENDBRANCH   1  20
BRANCH   1  22
ATOM     22  C   UNL     1      -6.896   8.897  23.444  0.00  0.00    +0.163 C 
BRANCH  22  23
ATOM     23  O   UNL     1      -6.607   8.852  24.851  0.00  0.00    -0.388 OA
ATOM     24  H   UNL     1      -6.985   8.054  25.230  0.00  0.00    +0.210 HD
ENDBRANCH  22  23
BRANCH  22  25
ATOM     25  C   UNL     1      -5.900   8.033  22.678  0.00  0.00    +0.141 C 
BRANCH  25  28
ATOM     26  C   UNL     1      -3.879   6.687  23.138  0.00  0.00    +0.401 C 
ATOM     27  O   UNL     1      -3.772   6.280  21.979  0.00  0.00    -0.226 OA
ATOM     28  N   UNL     1      -4.847   7.505  23.554  0.00  0.00    -0.279 N 
ATOM     29  H   UNL     1      -4.856   7.776  24.528  0.00  0.00    +0.152 HD
BRANCH  26  30
ATOM     30  O   UNL     1      -2.921   6.267  24.113  0.00  0.00    -0.444 OA
BRANCH  30  31
ATOM     31  C   UNL     1      -3.595   5.917  25.325  0.00  0.00    +0.292 C 
BRANCH  31  33
ATOM     32  N   UNL     1      -1.862   7.242  26.498  0.00  0.00    -0.131 NA
ATOM     33  C   UNL     1      -3.150   6.783  26.432  0.00  0.00    +0.120 A 
ATOM     34  C   UNL     1      -3.853   7.260  27.515  0.00  0.00    +0.137 A 
ATOM     35  N   UNL     1      -2.926   7.949  28.237  0.00  0.00    -0.241 N 
ATOM     36  N   UNL     1      -1.740   7.973  27.597  0.00  0.00    -0.065 NA
BRANCH  35  37
ATOM     37  C   UNL     1      -3.075   8.742  29.440  0.00  0.00    +0.265 C 
BRANCH  37  38
ATOM     38  C   UNL     1      -3.522  10.163  29.223  0.00  0.00    +0.326 C 
ATOM     39  O   UNL     1      -4.534  10.687  29.665  0.00  0.00    -0.249 OA
BRANCH  38  40
ATOM     40  O   UNL     1      -2.665  10.863  28.432  0.00  0.00    -0.479 OA
ATOM     41  H   UNL     1      -3.017  11.145  27.567  0.00  0.00    +0.295 HD
ENDBRANCH  38  40
ENDBRANCH  37  38
ENDBRANCH  35  37
ENDBRANCH  31  33
ENDBRANCH  30  31
ENDBRANCH  26  30
ENDBRANCH  25  28
ENDBRANCH  22  25
ENDBRANCH   1  22
TORSDOF 16
