REMARK VINA RESULT:    -5.032      2.358      3.800
REMARK INTER + INTRA:         -11.576
REMARK INTER:                  -8.854
REMARK INTRA:                  -2.722
REMARK UNBOUND:                -2.867
REMARK  Name = lig_assembled_70.pdb
REMARK  16 active torsions:
REMARK  status: ('A' for Active; 'I' for Inactive)
REMARK    1  A    between atoms: _2  and  _10
REMARK    2  A    between atoms: _5  and  _22
REMARK    3  A    between atoms: _7  and  _8
REMARK    4  A    between atoms: _7  and  _22
REMARK    5  A    between atoms: _18  and  _38
REMARK    6  A    between atoms: _20  and  _26
REMARK    7  A    between atoms: _21  and  _25
REMARK    8  A    between atoms: _25  and  _26
REMARK    9  A    between atoms: _28  and  _29
REMARK   10  A    between atoms: _30  and  _31
REMARK   11  A    between atoms: _32  and  _34
REMARK   12  A    between atoms: _34  and  _35
REMARK   13  A    between atoms: _34  and  _36
REMARK   14  A    between atoms: _36  and  _37
REMARK   15  A    between atoms: _36  and  _38
REMARK   16  A    between atoms: _39  and  _41
REMARK                            x       y       z     vdW  Elec       q    Type
REMARK                         _______ _______ _______ _____ _____    ______ ____
ROOT
ATOM      1  C   UNL     1      -2.887  12.146  24.083  0.00  0.00    +0.163 C 
ENDROOT
BRANCH   1   2
ATOM      2  O   UNL     1      -2.084  11.740  25.204  0.00  0.00    -0.388 OA
ATOM      3  H   UNL     1      -2.498  10.990  25.639  0.00  0.00    +0.210 HD
ENDBRANCH   1   2
BRANCH   1   4
ATOM      4  C   UNL     1      -3.759  13.336  24.469  0.00  0.00    +0.141 C 
BRANCH   4   7
ATOM      5  C   UNL     1      -4.476  14.592  22.466  0.00  0.00    +0.401 C 
ATOM      6  O   UNL     1      -3.434  15.248  22.388  0.00  0.00    -0.226 OA
ATOM      7  N   UNL     1      -4.715  13.681  23.410  0.00  0.00    -0.279 N 
ATOM      8  H   UNL     1      -5.604  13.201  23.396  0.00  0.00    +0.152 HD
BRANCH   5   9
ATOM      9  O   UNL     1      -5.506  14.807  21.497  0.00  0.00    -0.444 OA
BRANCH   9  10
ATOM     10  C   UNL     1      -6.498  13.785  21.620  0.00  0.00    +0.292 C 
BRANCH  10  12
ATOM     11  N   UNL     1      -7.472  12.761  19.583  0.00  0.00    -0.131 NA
ATOM     12  C   UNL     1      -6.437  12.866  20.468  0.00  0.00    +0.121 A 
ATOM     13  C   UNL     1      -5.431  12.012  20.084  0.00  0.00    +0.143 A 
ATOM     14  N   UNL     1      -5.894  11.408  18.937  0.00  0.00    -0.218 N 
ATOM     15  N   UNL     1      -7.136  11.867  18.660  0.00  0.00    -0.060 NA
BRANCH  14  16
ATOM     16  C   UNL     1      -5.234  10.473  18.113  0.00  0.00    +0.086 A 
ATOM     17  C   UNL     1      -5.365   9.114  18.347  0.00  0.00    +0.139 A 
ATOM     18  N   UNL     1      -4.796   8.160  17.566  0.00  0.00    -0.253 NA
ATOM     19  C   UNL     1      -4.073   8.553  16.502  0.00  0.00    +0.071 A 
ATOM     20  C   UNL     1      -3.873   9.915  16.194  0.00  0.00    +0.002 A 
ATOM     21  C   UNL     1      -3.111  10.289  15.072  0.00  0.00    +0.010 A 
ATOM     22  C   UNL     1      -2.563   9.318  14.240  0.00  0.00    +0.001 A 
ATOM     23  C   UNL     1      -2.764   7.974  14.532  0.00  0.00    +0.002 A 
ATOM     24  C   UNL     1      -3.507   7.606  15.658  0.00  0.00    +0.028 A 
ATOM     25  C   UNL     1      -4.459  10.878  17.025  0.00  0.00    +0.039 A 
ENDBRANCH  14  16
ENDBRANCH  10  12
ENDBRANCH   9  10
ENDBRANCH   5   9
ENDBRANCH   4   7
ENDBRANCH   1   4
BRANCH   1  26
ATOM     26  C   UNL     1      -3.779  10.991  23.598  0.00  0.00    +0.175 C 
BRANCH  26  27
ATOM     27  C   UNL     1      -4.183  10.052  24.744  0.00  0.00    +0.176 C 
ATOM     28  O   UNL     1      -3.040   9.209  25.056  0.00  0.00    -0.332 OA
ATOM     29  C   UNL     1      -3.207   8.315  26.205  0.00  0.00    +0.277 C 
ATOM     30  C   UNL     1      -4.470   7.437  26.029  0.00  0.00    +0.110 C 
ATOM     31  C   UNL     1      -5.706   8.286  25.664  0.00  0.00    +0.143 C 
ATOM     32  C   UNL     1      -5.421   9.181  24.458  0.00  0.00    +0.133 C 
BRANCH  32  33
ATOM     33  N   UNL     1      -6.576  10.048  24.174  0.00  0.00    -0.308 N 
ATOM     34  H   UNL     1      -6.888  10.672  24.905  0.00  0.00    +0.149 HD
ATOM     35  C   UNL     1      -7.239  10.063  23.015  0.00  0.00    +0.210 C 
ATOM     36  C   UNL     1      -6.754   9.082  21.931  0.00  0.00    +0.109 C 
ATOM     37  O   UNL     1      -8.194  10.810  22.800  0.00  0.00    -0.276 OA
ENDBRANCH  32  33
BRANCH  29  38
ATOM     38  C   UNL     1      -3.318   9.122  27.515  0.00  0.00    +0.414 C 
ATOM     39  O   UNL     1      -4.118   8.782  28.387  0.00  0.00    -0.240 OA
ATOM     40  O   UNL     1      -2.609  10.112  27.701  0.00  0.00    -0.240 OA
ENDBRANCH  29  38
BRANCH  31  41
ATOM     41  O   UNL     1      -6.808   7.429  25.364  0.00  0.00    -0.390 OA
ATOM     42  H   UNL     1      -7.043   6.923  26.145  0.00  0.00    +0.210 HD
ENDBRANCH  31  41
BRANCH  29  43
ATOM     43  O   UNL     1      -2.049   7.442  26.266  0.00  0.00    -0.343 OA
ATOM     44  C   UNL     1      -2.264   6.188  26.962  0.00  0.00    +0.198 C 
ENDBRANCH  29  43
ENDBRANCH  26  27
BRANCH  26  45
ATOM     45  O   UNL     1      -3.109  10.247  22.560  0.00  0.00    -0.387 OA
ATOM     46  H   UNL     1      -3.188  10.718  21.727  0.00  0.00    +0.210 HD
ENDBRANCH  26  45
ENDBRANCH   1  26
TORSDOF 14
