REMARK VINA RESULT:    -4.452      2.566      7.445
REMARK INTER + INTRA:         -12.354
REMARK INTER:                  -8.717
REMARK INTRA:                  -3.637
REMARK UNBOUND:                -3.997
REMARK  Name = lig_assembled_68.pdb
REMARK  19 active torsions:
REMARK  status: ('A' for Active; 'I' for Inactive)
REMARK    1  A    between atoms: _2  and  _9
REMARK    2  A    between atoms: _4  and  _21
REMARK    3  A    between atoms: _6  and  _7
REMARK    4  A    between atoms: _6  and  _21
REMARK    5  A    between atoms: _9  and  _10
REMARK    6  A    between atoms: _10  and  _11
REMARK    7  A    between atoms: _10  and  _16
REMARK    8  A    between atoms: _17  and  _37
REMARK    9  A    between atoms: _19  and  _25
REMARK   10  A    between atoms: _20  and  _24
REMARK   11  A    between atoms: _24  and  _25
REMARK   12  A    between atoms: _27  and  _28
REMARK   13  A    between atoms: _29  and  _30
REMARK   14  A    between atoms: _31  and  _33
REMARK   15  A    between atoms: _33  and  _34
REMARK   16  A    between atoms: _33  and  _35
REMARK   17  A    between atoms: _35  and  _36
REMARK   18  A    between atoms: _35  and  _37
REMARK   19  A    between atoms: _38  and  _40
REMARK                            x       y       z     vdW  Elec       q    Type
REMARK                         _______ _______ _______ _____ _____    ______ ____
ROOT
ATOM      1  C   UNL     1      -6.581   8.697  23.230  0.00  0.00    +0.163 C 
ENDROOT
BRANCH   1   2
ATOM      2  O   UNL     1      -6.280   8.515  24.624  0.00  0.00    -0.388 OA
ATOM      3  H   UNL     1      -6.093   7.589  24.793  0.00  0.00    +0.210 HD
ENDBRANCH   1   2
BRANCH   1   4
ATOM      4  C   UNL     1      -6.691  10.191  22.881  0.00  0.00    +0.175 C 
BRANCH   4   5
ATOM      5  C   UNL     1      -5.441  10.976  23.304  0.00  0.00    +0.176 C 
ATOM      6  O   UNL     1      -5.497  11.163  24.745  0.00  0.00    -0.332 OA
ATOM      7  C   UNL     1      -4.325  11.807  25.347  0.00  0.00    +0.277 C 
ATOM      8  C   UNL     1      -4.037  13.161  24.654  0.00  0.00    +0.110 C 
ATOM      9  C   UNL     1      -4.000  13.019  23.118  0.00  0.00    +0.143 C 
ATOM     10  C   UNL     1      -5.265  12.334  22.600  0.00  0.00    +0.133 C 
BRANCH  10  11
ATOM     11  N   UNL     1      -5.179  12.126  21.146  0.00  0.00    -0.308 N 
ATOM     12  H   UNL     1      -4.379  11.623  20.788  0.00  0.00    +0.149 HD
ATOM     13  C   UNL     1      -6.089  12.559  20.268  0.00  0.00    +0.210 C 
ATOM     14  C   UNL     1      -7.282  13.345  20.843  0.00  0.00    +0.109 C 
ATOM     15  O   UNL     1      -5.998  12.357  19.057  0.00  0.00    -0.276 OA
ENDBRANCH  10  11
BRANCH   7  16
ATOM     16  C   UNL     1      -3.085  10.897  25.237  0.00  0.00    +0.414 C 
ATOM     17  O   UNL     1      -1.955  11.373  25.342  0.00  0.00    -0.240 OA
ATOM     18  O   UNL     1      -3.213   9.687  25.042  0.00  0.00    -0.240 OA
ENDBRANCH   7  16
BRANCH   7  19
ATOM     19  O   UNL     1      -4.621  12.062  26.744  0.00  0.00    -0.343 OA
ATOM     20  C   UNL     1      -6.025  11.978  27.098  0.00  0.00    +0.198 C 
ENDBRANCH   7  19
BRANCH   9  21
ATOM     21  O   UNL     1      -3.883  14.309  22.517  0.00  0.00    -0.390 OA
ATOM     22  H   UNL     1      -2.966  14.592  22.541  0.00  0.00    +0.210 HD
ENDBRANCH   9  21
ENDBRANCH   4   5
BRANCH   4  23
ATOM     23  O   UNL     1      -7.866  10.759  23.494  0.00  0.00    -0.387 OA
ATOM     24  H   UNL     1      -8.503  10.063  23.672  0.00  0.00    +0.210 HD
ENDBRANCH   4  23
ENDBRANCH   1   4
BRANCH   1  25
ATOM     25  C   UNL     1      -5.497   8.052  22.374  0.00  0.00    +0.141 C 
BRANCH  25  28
ATOM     26  C   UNL     1      -3.764   6.427  23.054  0.00  0.00    +0.401 C 
ATOM     27  O   UNL     1      -4.132   5.559  22.260  0.00  0.00    -0.226 OA
ATOM     28  N   UNL     1      -4.348   7.619  23.179  0.00  0.00    -0.279 N 
ATOM     29  H   UNL     1      -3.979   8.262  23.866  0.00  0.00    +0.152 HD
BRANCH  26  30
ATOM     30  O   UNL     1      -2.648   6.160  23.907  0.00  0.00    -0.444 OA
BRANCH  30  31
ATOM     31  C   UNL     1      -3.104   5.539  25.112  0.00  0.00    +0.292 C 
BRANCH  31  33
ATOM     32  N   UNL     1      -1.633   6.886  26.585  0.00  0.00    -0.131 NA
ATOM     33  C   UNL     1      -2.887   6.429  26.265  0.00  0.00    +0.120 A 
ATOM     34  C   UNL     1      -3.791   6.928  27.173  0.00  0.00    +0.137 A 
ATOM     35  N   UNL     1      -3.030   7.688  28.013  0.00  0.00    -0.249 N 
ATOM     36  N   UNL     1      -1.733   7.652  27.664  0.00  0.00    -0.065 NA
BRANCH  35  37
ATOM     37  C   UNL     1      -3.455   8.382  29.211  0.00  0.00    +0.181 C 
BRANCH  37  38
ATOM     38  C   UNL     1      -2.656   9.670  29.447  0.00  0.00    +0.166 C 
BRANCH  38  39
ATOM     39  C   UNL     1      -3.199  10.548  30.565  0.00  0.00    -0.017 A 
ATOM     40  C   UNL     1      -4.315  11.365  30.307  0.00  0.00    +0.006 A 
ATOM     41  C   UNL     1      -4.862  12.166  31.312  0.00  0.00    +0.000 A 
ATOM     42  C   UNL     1      -4.308  12.160  32.589  0.00  0.00    +0.000 A 
ATOM     43  C   UNL     1      -3.217  11.345  32.867  0.00  0.00    +0.000 A 
ATOM     44  C   UNL     1      -2.668  10.540  31.864  0.00  0.00    +0.006 A 
ENDBRANCH  38  39
BRANCH  38  45
ATOM     45  O   UNL     1      -2.653  10.444  28.242  0.00  0.00    -0.385 OA
ATOM     46  H   UNL     1      -3.070   9.917  27.541  0.00  0.00    +0.210 HD
ENDBRANCH  38  45
ENDBRANCH  37  38
ENDBRANCH  35  37
ENDBRANCH  31  33
ENDBRANCH  30  31
ENDBRANCH  26  30
ENDBRANCH  25  28
ENDBRANCH   1  25
TORSDOF 17
