REMARK VINA RESULT:    -4.242     11.235     14.576
REMARK INTER + INTRA:         -11.219
REMARK INTER:                  -7.872
REMARK INTRA:                  -3.347
REMARK UNBOUND:                -3.505
REMARK  Name = lig_assembled_22.pdb
REMARK  20 active torsions:
REMARK  status: ('A' for Active; 'I' for Inactive)
REMARK    1  A    between atoms: _2  and  _9
REMARK    2  A    between atoms: _4  and  _18
REMARK    3  A    between atoms: _5  and  _9
REMARK    4  A    between atoms: _5  and  _12
REMARK    5  A    between atoms: _6  and  _7
REMARK    6  A    between atoms: _6  and  _18
REMARK    7  A    between atoms: _9  and  _10
REMARK    8  A    between atoms: _9  and  _11
REMARK    9  A    between atoms: _14  and  _34
REMARK   10  A    between atoms: _16  and  _22
REMARK   11  A    between atoms: _17  and  _21
REMARK   12  A    between atoms: _21  and  _22
REMARK   13  A    between atoms: _24  and  _25
REMARK   14  A    between atoms: _26  and  _27
REMARK   15  A    between atoms: _28  and  _30
REMARK   16  A    between atoms: _30  and  _31
REMARK   17  A    between atoms: _30  and  _32
REMARK   18  A    between atoms: _32  and  _33
REMARK   19  A    between atoms: _32  and  _34
REMARK   20  A    between atoms: _35  and  _37
REMARK                            x       y       z     vdW  Elec       q    Type
REMARK                         _______ _______ _______ _____ _____    ______ ____
ROOT
ATOM      1  C   UNL     1      -4.172  14.679  12.208  0.00  0.00    +0.163 C 
ENDROOT
BRANCH   1   2
ATOM      2  O   UNL     1      -4.237  15.754  11.257  0.00  0.00    -0.388 OA
ATOM      3  H   UNL     1      -3.371  15.890  10.866  0.00  0.00    +0.210 HD
ENDBRANCH   1   2
BRANCH   1   4
ATOM      4  C   UNL     1      -5.329  14.784  13.196  0.00  0.00    +0.141 C 
BRANCH   4   7
ATOM      5  C   UNL     1      -6.207  12.487  13.435  0.00  0.00    +0.401 C 
ATOM      6  O   UNL     1      -6.728  12.469  12.317  0.00  0.00    -0.226 OA
ATOM      7  N   UNL     1      -5.539  13.530  13.929  0.00  0.00    -0.279 N 
ATOM      8  H   UNL     1      -5.155  13.452  14.860  0.00  0.00    +0.152 HD
BRANCH   5   9
ATOM      9  O   UNL     1      -6.316  11.332  14.271  0.00  0.00    -0.444 OA
BRANCH   9  10
ATOM     10  C   UNL     1      -5.438  11.468  15.391  0.00  0.00    +0.292 C 
BRANCH  10  12
ATOM     11  N   UNL     1      -3.014  11.023  15.245  0.00  0.00    -0.131 NA
ATOM     12  C   UNL     1      -4.294  10.547  15.259  0.00  0.00    +0.120 A 
ATOM     13  C   UNL     1      -4.264   9.175  15.134  0.00  0.00    +0.138 A 
ATOM     14  N   UNL     1      -2.933   8.874  15.049  0.00  0.00    -0.235 N 
ATOM     15  N   UNL     1      -2.191   9.996  15.112  0.00  0.00    -0.064 NA
BRANCH  14  16
ATOM     16  C   UNL     1      -2.283   7.573  14.884  0.00  0.00    +0.155 C 
ATOM     17  C   UNL     1      -3.032   6.449  15.632  0.00  0.00    +0.048 C 
ATOM     18  C   UNL     1      -0.852   7.661  15.446  0.00  0.00    +0.048 C 
BRANCH  16  19
ATOM     19  C   UNL     1      -2.231   7.187  13.403  0.00  0.00    +0.332 C 
ATOM     20  O   UNL     1      -2.709   6.157  12.943  0.00  0.00    -0.248 OA
BRANCH  19  21
ATOM     21  O   UNL     1      -1.607   8.077  12.594  0.00  0.00    -0.479 OA
ATOM     22  H   UNL     1      -2.111   8.881  12.361  0.00  0.00    +0.295 HD
ENDBRANCH  19  21
ENDBRANCH  16  19
ENDBRANCH  14  16
ENDBRANCH  10  12
ENDBRANCH   9  10
ENDBRANCH   5   9
ENDBRANCH   4   7
ENDBRANCH   1   4
BRANCH   1  23
ATOM     23  C   UNL     1      -2.838  14.703  12.974  0.00  0.00    +0.175 C 
BRANCH  23  24
ATOM     24  C   UNL     1      -1.637  14.442  12.053  0.00  0.00    +0.176 C 
ATOM     25  O   UNL     1      -1.300  15.693  11.393  0.00  0.00    -0.332 OA
ATOM     26  C   UNL     1      -0.103  15.662  10.548  0.00  0.00    +0.277 C 
ATOM     27  C   UNL     1      -0.211  14.528   9.498  0.00  0.00    +0.110 C 
ATOM     28  C   UNL     1      -0.599  13.184  10.149  0.00  0.00    +0.143 C 
ATOM     29  C   UNL     1      -1.856  13.333  11.008  0.00  0.00    +0.133 C 
BRANCH  29  30
ATOM     30  N   UNL     1      -2.165  12.067  11.692  0.00  0.00    -0.308 N 
ATOM     31  H   UNL     1      -1.589  11.803  12.479  0.00  0.00    +0.149 HD
ATOM     32  C   UNL     1      -3.157  11.245  11.341  0.00  0.00    +0.210 C 
ATOM     33  C   UNL     1      -4.000  11.663  10.121  0.00  0.00    +0.109 C 
ATOM     34  O   UNL     1      -3.402  10.198  11.941  0.00  0.00    -0.276 OA
ENDBRANCH  29  30
BRANCH  26  35
ATOM     35  C   UNL     1       1.165  15.453  11.403  0.00  0.00    +0.414 C 
ATOM     36  O   UNL     1       2.093  14.767  10.977  0.00  0.00    -0.240 OA
ATOM     37  O   UNL     1       1.259  15.971  12.516  0.00  0.00    -0.240 OA
ENDBRANCH  26  35
BRANCH  26  38
ATOM     38  O   UNL     1      -0.015  16.928   9.846  0.00  0.00    -0.343 OA
ATOM     39  C   UNL     1       0.630  16.866   8.549  0.00  0.00    +0.198 C 
ENDBRANCH  26  38
BRANCH  28  40
ATOM     40  O   UNL     1      -0.835  12.208   9.134  0.00  0.00    -0.390 OA
ATOM     41  H   UNL     1      -1.553  11.631   9.406  0.00  0.00    +0.210 HD
ENDBRANCH  28  40
ENDBRANCH  23  24
BRANCH  23  42
ATOM     42  O   UNL     1      -2.862  13.737  14.044  0.00  0.00    -0.387 OA
ATOM     43  H   UNL     1      -2.423  12.932  13.759  0.00  0.00    +0.210 HD
ENDBRANCH  23  42
ENDBRANCH   1  23
TORSDOF 16
