REMARK VINA RESULT:    -4.008     11.940     15.069
REMARK INTER + INTRA:         -10.768
REMARK INTER:                  -7.290
REMARK INTRA:                  -3.478
REMARK UNBOUND:                -2.894
REMARK  Name = lig_assembled_17.pdb
REMARK  22 active torsions:
REMARK  status: ('A' for Active; 'I' for Inactive)
REMARK    1  A    between atoms: _2  and  _10
REMARK    2  A    between atoms: _3  and  _11
REMARK    3  A    between atoms: _3  and  _12
REMARK    4  A    between atoms: _3  and  _14
REMARK    5  A    between atoms: _5  and  _19
REMARK    6  A    between atoms: _6  and  _14
REMARK    7  A    between atoms: _7  and  _8
REMARK    8  A    between atoms: _7  and  _19
REMARK    9  A    between atoms: _10  and  _11
REMARK   10  A    between atoms: _12  and  _13
REMARK   11  A    between atoms: _15  and  _35
REMARK   12  A    between atoms: _17  and  _23
REMARK   13  A    between atoms: _18  and  _22
REMARK   14  A    between atoms: _22  and  _23
REMARK   15  A    between atoms: _25  and  _26
REMARK   16  A    between atoms: _27  and  _28
REMARK   17  A    between atoms: _29  and  _31
REMARK   18  A    between atoms: _31  and  _32
REMARK   19  A    between atoms: _31  and  _33
REMARK   20  A    between atoms: _33  and  _34
REMARK   21  A    between atoms: _33  and  _35
REMARK   22  A    between atoms: _36  and  _38
REMARK                            x       y       z     vdW  Elec       q    Type
REMARK                         _______ _______ _______ _____ _____    ______ ____
ROOT
ATOM      1  C   UNL     1      -5.640   8.451  10.845  0.00  0.00    +0.163 C 
ENDROOT
BRANCH   1   2
ATOM      2  O   UNL     1      -4.295   7.955  10.752  0.00  0.00    -0.388 OA
ATOM      3  H   UNL     1      -4.256   7.065  11.111  0.00  0.00    +0.210 HD
ENDBRANCH   1   2
BRANCH   1   4
ATOM      4  C   UNL     1      -5.792   9.405  12.043  0.00  0.00    +0.175 C 
BRANCH   4   5
ATOM      5  C   UNL     1      -4.485   9.551  12.835  0.00  0.00    +0.176 C 
ATOM      6  O   UNL     1      -4.405   8.443  13.774  0.00  0.00    -0.332 OA
ATOM      7  C   UNL     1      -3.164   8.358  14.550  0.00  0.00    +0.277 C 
ATOM      8  C   UNL     1      -2.895   9.691  15.290  0.00  0.00    +0.110 C 
ATOM      9  C   UNL     1      -3.000  10.902  14.338  0.00  0.00    +0.143 C 
ATOM     10  C   UNL     1      -4.328  10.890  13.580  0.00  0.00    +0.133 C 
BRANCH  10  11
ATOM     11  N   UNL     1      -4.379  11.998  12.613  0.00  0.00    -0.308 N 
ATOM     12  H   UNL     1      -3.718  11.989  11.850  0.00  0.00    +0.149 HD
ATOM     13  C   UNL     1      -5.243  13.015  12.679  0.00  0.00    +0.210 C 
ATOM     14  C   UNL     1      -6.221  13.013  13.869  0.00  0.00    +0.109 C 
ATOM     15  O   UNL     1      -5.273  13.922  11.847  0.00  0.00    -0.276 OA
ENDBRANCH  10  11
BRANCH   7  16
ATOM     16  C   UNL     1      -1.968   8.026  13.634  0.00  0.00    +0.414 C 
ATOM     17  O   UNL     1      -0.972   7.468  14.092  0.00  0.00    -0.240 OA
ATOM     18  O   UNL     1      -1.999   8.316  12.437  0.00  0.00    -0.240 OA
ENDBRANCH   7  16
BRANCH   9  19
ATOM     19  O   UNL     1      -2.896  12.113  15.086  0.00  0.00    -0.390 OA
ATOM     20  H   UNL     1      -2.429  12.772  14.567  0.00  0.00    +0.210 HD
ENDBRANCH   9  19
BRANCH   7  21
ATOM     21  O   UNL     1      -3.326   7.310  15.541  0.00  0.00    -0.343 OA
ATOM     22  C   UNL     1      -4.557   7.374  16.304  0.00  0.00    +0.198 C 
ENDBRANCH   7  21
ENDBRANCH   4   5
BRANCH   4  23
ATOM     23  O   UNL     1      -6.850   8.950  12.909  0.00  0.00    -0.387 OA
ATOM     24  H   UNL     1      -7.328   9.706  13.257  0.00  0.00    +0.210 HD
ENDBRANCH   4  23
ENDBRANCH   1   4
BRANCH   1  25
ATOM     25  C   UNL     1      -6.017   9.182   9.561  0.00  0.00    +0.141 C 
BRANCH  25  28
ATOM     26  C   UNL     1      -5.447  11.549   9.136  0.00  0.00    +0.401 C 
ATOM     27  O   UNL     1      -6.608  11.947   9.255  0.00  0.00    -0.226 OA
ATOM     28  N   UNL     1      -5.081  10.272   9.257  0.00  0.00    -0.279 N 
ATOM     29  H   UNL     1      -4.106  10.042   9.132  0.00  0.00    +0.152 HD
BRANCH  26  30
ATOM     30  O   UNL     1      -4.414  12.494   8.846  0.00  0.00    -0.444 OA
BRANCH  30  31
ATOM     31  C   UNL     1      -3.169  11.809   8.691  0.00  0.00    +0.292 C 
BRANCH  31  33
ATOM     32  N   UNL     1      -2.071  11.741  10.905  0.00  0.00    -0.131 NA
ATOM     33  C   UNL     1      -2.185  12.314   9.666  0.00  0.00    +0.120 A 
ATOM     34  C   UNL     1      -1.267  13.335   9.555  0.00  0.00    +0.137 A 
ATOM     35  N   UNL     1      -0.616  13.318  10.751  0.00  0.00    -0.250 N 
ATOM     36  N   UNL     1      -1.107  12.367  11.564  0.00  0.00    -0.065 NA
BRANCH  35  37
ATOM     37  C   UNL     1       0.502  14.132  11.181  0.00  0.00    +0.160 C 
BRANCH  37  38
ATOM     38  C   UNL     1       0.163  14.870  12.484  0.00  0.00    +0.107 C 
BRANCH  38  39
ATOM     39  N   UNL     1      -0.293  16.274  12.336  0.00  0.00    -0.301 NA
BRANCH  39  40
ATOM     40  C   UNL     1       0.239  16.938  11.132  0.00  0.00    +0.081 C 
ATOM     41  C   UNL     1       1.551  17.699  11.299  0.00  0.00    +0.020 C 
ENDBRANCH  39  40
BRANCH  39  42
ATOM     42  C   UNL     1      -1.769  16.306  12.418  0.00  0.00    +0.081 C 
ATOM     43  C   UNL     1      -2.382  15.266  13.351  0.00  0.00    +0.020 C 
ENDBRANCH  39  42
ENDBRANCH  38  39
ENDBRANCH  37  38
ENDBRANCH  35  37
ENDBRANCH  31  33
ENDBRANCH  30  31
ENDBRANCH  26  30
ENDBRANCH  25  28
ENDBRANCH   1  25
TORSDOF 18
