REMARK VINA RESULT:    -4.614      2.216      5.401
REMARK INTER + INTRA:         -11.324
REMARK INTER:                  -7.608
REMARK INTRA:                  -3.716
REMARK UNBOUND:                -2.934
REMARK  Name = lig_assembled_72.pdb
REMARK  20 active torsions:
REMARK  status: ('A' for Active; 'I' for Inactive)
REMARK    1  A    between atoms: _2  and  _9
REMARK    2  A    between atoms: _4  and  _17
REMARK    3  A    between atoms: _5  and  _9
REMARK    4  A    between atoms: _5  and  _12
REMARK    5  A    between atoms: _6  and  _7
REMARK    6  A    between atoms: _6  and  _17
REMARK    7  A    between atoms: _9  and  _10
REMARK    8  A    between atoms: _9  and  _11
REMARK    9  A    between atoms: _13  and  _33
REMARK   10  A    between atoms: _15  and  _21
REMARK   11  A    between atoms: _16  and  _20
REMARK   12  A    between atoms: _20  and  _21
REMARK   13  A    between atoms: _23  and  _24
REMARK   14  A    between atoms: _25  and  _26
REMARK   15  A    between atoms: _27  and  _29
REMARK   16  A    between atoms: _29  and  _30
REMARK   17  A    between atoms: _29  and  _31
REMARK   18  A    between atoms: _31  and  _32
REMARK   19  A    between atoms: _31  and  _33
REMARK   20  A    between atoms: _34  and  _36
REMARK                            x       y       z     vdW  Elec       q    Type
REMARK                         _______ _______ _______ _____ _____    ______ ____
ROOT
ATOM      1  C   UNL     1      -4.051  10.165  23.192  0.00  0.00    +0.163 C 
ENDROOT
BRANCH   1   2
ATOM      2  O   UNL     1      -2.842  10.532  23.876  0.00  0.00    -0.388 OA
ATOM      3  H   UNL     1      -2.199   9.823  23.795  0.00  0.00    +0.210 HD
ENDBRANCH   1   2
BRANCH   1   4
ATOM      4  C   UNL     1      -5.052   9.507  24.158  0.00  0.00    +0.175 C 
BRANCH   4   5
ATOM      5  C   UNL     1      -4.420   9.198  25.523  0.00  0.00    +0.176 C 
ATOM      6  O   UNL     1      -3.387   8.194  25.320  0.00  0.00    -0.332 OA
ATOM      7  C   UNL     1      -2.598   7.849  26.506  0.00  0.00    +0.277 C 
ATOM      8  C   UNL     1      -3.527   7.417  27.667  0.00  0.00    +0.110 C 
ATOM      9  C   UNL     1      -4.660   8.438  27.900  0.00  0.00    +0.143 C 
ATOM     10  C   UNL     1      -5.414   8.727  26.601  0.00  0.00    +0.133 C 
BRANCH  10  11
ATOM     11  N   UNL     1      -6.434   9.765  26.816  0.00  0.00    -0.308 N 
ATOM     12  H   UNL     1      -6.124  10.671  27.137  0.00  0.00    +0.149 HD
ATOM     13  C   UNL     1      -7.742   9.587  26.616  0.00  0.00    +0.210 C 
ATOM     14  C   UNL     1      -8.185   8.187  26.151  0.00  0.00    +0.109 C 
ATOM     15  O   UNL     1      -8.573  10.480  26.790  0.00  0.00    -0.276 OA
ENDBRANCH  10  11
BRANCH   7  16
ATOM     16  C   UNL     1      -1.733   9.045  26.955  0.00  0.00    +0.414 C 
ATOM     17  O   UNL     1      -1.461   9.202  28.145  0.00  0.00    -0.240 OA
ATOM     18  O   UNL     1      -1.308   9.853  26.128  0.00  0.00    -0.240 OA
ENDBRANCH   7  16
BRANCH   9  19
ATOM     19  O   UNL     1      -5.575   7.930  28.871  0.00  0.00    -0.390 OA
ATOM     20  H   UNL     1      -5.856   8.642  29.451  0.00  0.00    +0.210 HD
ENDBRANCH   9  19
BRANCH   7  21
ATOM     21  O   UNL     1      -1.742   6.728  26.164  0.00  0.00    -0.343 OA
ATOM     22  C   UNL     1      -1.715   5.658  27.142  0.00  0.00    +0.198 C 
ENDBRANCH   7  21
ENDBRANCH   4   5
BRANCH   4  23
ATOM     23  O   UNL     1      -5.588   8.303  23.574  0.00  0.00    -0.387 OA
ATOM     24  H   UNL     1      -6.309   7.977  24.117  0.00  0.00    +0.210 HD
ENDBRANCH   4  23
ENDBRANCH   1   4
BRANCH   1  25
ATOM     25  C   UNL     1      -4.688  11.398  22.560  0.00  0.00    +0.141 C 
BRANCH  25  28
ATOM     26  C   UNL     1      -4.719  13.514  23.836  0.00  0.00    +0.401 C 
ATOM     27  O   UNL     1      -3.727  13.979  23.270  0.00  0.00    -0.226 OA
ATOM     28  N   UNL     1      -5.233  12.312  23.571  0.00  0.00    -0.279 N 
ATOM     29  H   UNL     1      -6.043  12.013  24.095  0.00  0.00    +0.152 HD
BRANCH  26  30
ATOM     30  O   UNL     1      -5.372  14.290  24.844  0.00  0.00    -0.444 OA
BRANCH  30  31
ATOM     31  C   UNL     1      -6.186  13.436  25.652  0.00  0.00    +0.292 C 
BRANCH  31  33
ATOM     32  N   UNL     1      -4.371  12.177  26.766  0.00  0.00    -0.131 NA
ATOM     33  C   UNL     1      -5.449  13.015  26.857  0.00  0.00    +0.120 A 
ATOM     34  C   UNL     1      -5.657  13.334  28.182  0.00  0.00    +0.137 A 
ATOM     35  N   UNL     1      -4.673  12.661  28.851  0.00  0.00    -0.244 N 
ATOM     36  N   UNL     1      -3.905  11.966  27.987  0.00  0.00    -0.065 NA
BRANCH  35  37
ATOM     37  C   UNL     1      -4.406  12.639  30.296  0.00  0.00    +0.083 C 
ATOM     38  C   UNL     1      -5.694  13.012  31.054  0.00  0.00    +0.038 C 
ATOM     39  C   UNL     1      -3.298  13.656  30.634  0.00  0.00    +0.038 C 
BRANCH  37  40
ATOM     40  C   UNL     1      -3.965  11.229  30.776  0.00  0.00    +0.185 C 
BRANCH  40  41
ATOM     41  O   UNL     1      -2.643  10.893  30.360  0.00  0.00    -0.393 OA
ATOM     42  H   UNL     1      -2.258  11.719  29.993  0.00  0.00    +0.209 HD
ENDBRANCH  40  41
ENDBRANCH  37  40
ENDBRANCH  35  37
ENDBRANCH  31  33
ENDBRANCH  30  31
ENDBRANCH  26  30
ENDBRANCH  25  28
ENDBRANCH   1  25
TORSDOF 16
