REMARK VINA RESULT:    -4.140      4.718      8.445
REMARK INTER + INTRA:         -10.620
REMARK INTER:                  -6.832
REMARK INTRA:                  -3.788
REMARK UNBOUND:                -3.213
REMARK  Name = lig_assembled_46.pdb
REMARK  17 active torsions:
REMARK  status: ('A' for Active; 'I' for Inactive)
REMARK    1  A    between atoms: _2  and  _9
REMARK    2  A    between atoms: _4  and  _19
REMARK    3  A    between atoms: _6  and  _7
REMARK    4  A    between atoms: _6  and  _19
REMARK    5  A    between atoms: _9  and  _10
REMARK    6  A    between atoms: _15  and  _35
REMARK    7  A    between atoms: _17  and  _23
REMARK    8  A    between atoms: _18  and  _22
REMARK    9  A    between atoms: _22  and  _23
REMARK   10  A    between atoms: _25  and  _26
REMARK   11  A    between atoms: _27  and  _28
REMARK   12  A    between atoms: _29  and  _31
REMARK   13  A    between atoms: _31  and  _32
REMARK   14  A    between atoms: _31  and  _33
REMARK   15  A    between atoms: _33  and  _34
REMARK   16  A    between atoms: _33  and  _35
REMARK   17  A    between atoms: _36  and  _38
REMARK                            x       y       z     vdW  Elec       q    Type
REMARK                         _______ _______ _______ _____ _____    ______ ____
ROOT
ATOM      1  C   UNL     1      -3.010  10.882  29.193  0.00  0.00    +0.163 C 
ENDROOT
BRANCH   1   2
ATOM      2  O   UNL     1      -2.352   9.970  28.298  0.00  0.00    -0.388 OA
ATOM      3  H   UNL     1      -3.009   9.453  27.826  0.00  0.00    +0.210 HD
ENDBRANCH   1   2
BRANCH   1   4
ATOM      4  C   UNL     1      -3.096  10.272  30.588  0.00  0.00    +0.141 C 
BRANCH   4   7
ATOM      5  C   UNL     1      -3.148  12.047  32.307  0.00  0.00    +0.401 C 
ATOM      6  O   UNL     1      -1.925  12.202  32.318  0.00  0.00    -0.226 OA
ATOM      7  N   UNL     1      -3.780  11.162  31.534  0.00  0.00    -0.279 N 
ATOM      8  H   UNL     1      -4.786  11.102  31.603  0.00  0.00    +0.152 HD
BRANCH   5   9
ATOM      9  O   UNL     1      -3.958  12.849  33.169  0.00  0.00    -0.444 OA
BRANCH   9  10
ATOM     10  C   UNL     1      -3.922  14.210  32.730  0.00  0.00    +0.292 C 
BRANCH  10  12
ATOM     11  N   UNL     1      -6.008  13.561  31.566  0.00  0.00    -0.131 NA
ATOM     12  C   UNL     1      -4.992  14.460  31.745  0.00  0.00    +0.120 A 
ATOM     13  C   UNL     1      -5.200  15.545  30.921  0.00  0.00    +0.137 A 
ATOM     14  N   UNL     1      -6.390  15.272  30.309  0.00  0.00    -0.247 N 
ATOM     15  N   UNL     1      -6.866  14.071  30.690  0.00  0.00    -0.065 NA
BRANCH  14  16
ATOM     16  C   UNL     1      -7.236  16.192  29.569  0.00  0.00    +0.180 C 
BRANCH  16  17
ATOM     17  C   UNL     1      -7.160  16.016  28.072  0.00  0.00    -0.026 A 
ATOM     18  C   UNL     1      -7.062  17.126  27.219  0.00  0.00    +0.005 A 
ATOM     19  C   UNL     1      -6.895  16.950  25.843  0.00  0.00    +0.000 A 
ATOM     20  C   UNL     1      -6.822  15.667  25.306  0.00  0.00    +0.000 A 
ATOM     21  C   UNL     1      -6.927  14.557  26.141  0.00  0.00    +0.000 A 
ATOM     22  C   UNL     1      -7.094  14.729  27.516  0.00  0.00    +0.005 A 
ENDBRANCH  16  17
ENDBRANCH  14  16
ENDBRANCH  10  12
ENDBRANCH   9  10
ENDBRANCH   5   9
ENDBRANCH   4   7
ENDBRANCH   1   4
BRANCH   1  23
ATOM     23  C   UNL     1      -4.425  11.219  28.692  0.00  0.00    +0.175 C 
BRANCH  23  24
ATOM     24  C   UNL     1      -4.568  11.005  27.178  0.00  0.00    +0.176 C 
ATOM     25  O   UNL     1      -3.913  12.116  26.505  0.00  0.00    -0.332 OA
ATOM     26  C   UNL     1      -3.857  12.027  25.043  0.00  0.00    +0.277 C 
ATOM     27  C   UNL     1      -5.276  11.825  24.458  0.00  0.00    +0.110 C 
ATOM     28  C   UNL     1      -6.024  10.675  25.164  0.00  0.00    +0.143 C 
ATOM     29  C   UNL     1      -6.019  10.866  26.681  0.00  0.00    +0.133 C 
BRANCH  29  30
ATOM     30  N   UNL     1      -6.659   9.720  27.347  0.00  0.00    -0.308 N 
ATOM     31  H   UNL     1      -6.255   8.805  27.202  0.00  0.00    +0.149 HD
ATOM     32  C   UNL     1      -7.737   9.810  28.129  0.00  0.00    +0.210 C 
ATOM     33  C   UNL     1      -8.344  11.214  28.309  0.00  0.00    +0.109 C 
ATOM     34  O   UNL     1      -8.243   8.835  28.686  0.00  0.00    -0.276 OA
ENDBRANCH  29  30
BRANCH  26  35
ATOM     35  C   UNL     1      -2.946  10.863  24.600  0.00  0.00    +0.414 C 
ATOM     36  O   UNL     1      -2.082  10.429  25.360  0.00  0.00    -0.240 OA
ATOM     37  O   UNL     1      -3.076  10.359  23.484  0.00  0.00    -0.240 OA
ENDBRANCH  26  35
BRANCH  26  38
ATOM     38  O   UNL     1      -3.328  13.281  24.538  0.00  0.00    -0.343 OA
ATOM     39  C   UNL     1      -4.087  13.872  23.453  0.00  0.00    +0.198 C 
ENDBRANCH  26  38
BRANCH  28  40
ATOM     40  O   UNL     1      -7.374  10.622  24.701  0.00  0.00    -0.390 OA
ATOM     41  H   UNL     1      -7.722  11.514  24.623  0.00  0.00    +0.210 HD
ENDBRANCH  28  40
ENDBRANCH  23  24
BRANCH  23  42
ATOM     42  O   UNL     1      -4.763  12.578  29.036  0.00  0.00    -0.387 OA
ATOM     43  H   UNL     1      -4.443  13.170  28.351  0.00  0.00    +0.210 HD
ENDBRANCH  23  42
ENDBRANCH   1  23
TORSDOF 15
