REMARK VINA RESULT:    -4.744      5.231     12.315
REMARK INTER + INTRA:         -11.477
REMARK INTER:                  -8.857
REMARK INTRA:                  -2.621
REMARK UNBOUND:                -2.711
REMARK  Name = lig_assembled_36.pdb
REMARK  18 active torsions:
REMARK  status: ('A' for Active; 'I' for Inactive)
REMARK    1  A    between atoms: _2  and  _10
REMARK    2  A    between atoms: _5  and  _21
REMARK    3  A    between atoms: _7  and  _8
REMARK    4  A    between atoms: _7  and  _21
REMARK    5  A    between atoms: _10  and  _11
REMARK    6  A    between atoms: _14  and  _15
REMARK    7  A    between atoms: _17  and  _37
REMARK    8  A    between atoms: _19  and  _25
REMARK    9  A    between atoms: _20  and  _24
REMARK   10  A    between atoms: _24  and  _25
REMARK   11  A    between atoms: _27  and  _28
REMARK   12  A    between atoms: _29  and  _30
REMARK   13  A    between atoms: _31  and  _33
REMARK   14  A    between atoms: _33  and  _34
REMARK   15  A    between atoms: _33  and  _35
REMARK   16  A    between atoms: _35  and  _36
REMARK   17  A    between atoms: _35  and  _37
REMARK   18  A    between atoms: _38  and  _40
REMARK                            x       y       z     vdW  Elec       q    Type
REMARK                         _______ _______ _______ _____ _____    ______ ____
ROOT
ATOM      1  C   UNL     1      -5.727  11.382  13.996  0.00  0.00    +0.163 C 
ENDROOT
BRANCH   1   2
ATOM      2  O   UNL     1      -4.312  11.599  13.873  0.00  0.00    -0.388 OA
ATOM      3  H   UNL     1      -4.052  11.509  12.953  0.00  0.00    +0.210 HD
ENDBRANCH   1   2
BRANCH   1   4
ATOM      4  C   UNL     1      -6.043   9.883  14.135  0.00  0.00    +0.175 C 
BRANCH   4   5
ATOM      5  C   UNL     1      -4.770   9.025  14.177  0.00  0.00    +0.176 C 
ATOM      6  O   UNL     1      -4.317   8.829  12.810  0.00  0.00    -0.332 OA
ATOM      7  C   UNL     1      -3.045   8.116  12.659  0.00  0.00    +0.277 C 
ATOM      8  C   UNL     1      -3.098   6.754  13.393  0.00  0.00    +0.110 C 
ATOM      9  C   UNL     1      -3.605   6.907  14.843  0.00  0.00    +0.143 C 
ATOM     10  C   UNL     1      -4.932   7.666  14.883  0.00  0.00    +0.133 C 
BRANCH  10  11
ATOM     11  N   UNL     1      -5.360   7.882  16.274  0.00  0.00    -0.308 N 
ATOM     12  H   UNL     1      -4.745   8.404  16.881  0.00  0.00    +0.149 HD
ATOM     13  C   UNL     1      -6.509   7.433  16.786  0.00  0.00    +0.210 C 
ATOM     14  C   UNL     1      -7.413   6.618  15.842  0.00  0.00    +0.109 C 
ATOM     15  O   UNL     1      -6.849   7.641  17.951  0.00  0.00    -0.276 OA
ENDBRANCH  10  11
BRANCH   7  16
ATOM     16  C   UNL     1      -1.878   8.957  13.216  0.00  0.00    +0.414 C 
ATOM     17  O   UNL     1      -0.890   8.404  13.699  0.00  0.00    -0.240 OA
ATOM     18  O   UNL     1      -1.923  10.187  13.183  0.00  0.00    -0.240 OA
ENDBRANCH   7  16
BRANCH   7  19
ATOM     19  O   UNL     1      -2.836   7.865  11.245  0.00  0.00    -0.343 OA
ATOM     20  C   UNL     1      -4.037   7.560  10.493  0.00  0.00    +0.198 C 
ENDBRANCH   7  19
BRANCH   9  21
ATOM     21  O   UNL     1      -3.782   5.618  15.431  0.00  0.00    -0.390 OA
ATOM     22  H   UNL     1      -4.267   5.053  14.825  0.00  0.00    +0.210 HD
ENDBRANCH   9  21
ENDBRANCH   4   5
BRANCH   4  23
ATOM     23  O   UNL     1      -6.896   9.453  13.055  0.00  0.00    -0.387 OA
ATOM     24  H   UNL     1      -7.034  10.182  12.446  0.00  0.00    +0.210 HD
ENDBRANCH   4  23
ENDBRANCH   1   4
BRANCH   1  25
ATOM     25  C   UNL     1      -6.267  12.131  15.209  0.00  0.00    +0.141 C 
BRANCH  25  28
ATOM     26  C   UNL     1      -5.096  11.246  17.197  0.00  0.00    +0.401 C 
ATOM     27  O   UNL     1      -4.040  11.833  16.952  0.00  0.00    -0.226 OA
ATOM     28  N   UNL     1      -6.186  11.323  16.432  0.00  0.00    -0.279 N 
ATOM     29  H   UNL     1      -7.002  10.797  16.710  0.00  0.00    +0.152 HD
BRANCH  26  30
ATOM     30  O   UNL     1      -5.179  10.422  18.362  0.00  0.00    -0.444 OA
BRANCH  30  31
ATOM     31  C   UNL     1      -5.954  11.088  19.364  0.00  0.00    +0.292 C 
BRANCH  31  33
ATOM     32  N   UNL     1      -3.736  11.368  20.432  0.00  0.00    -0.131 NA
ATOM     33  C   UNL     1      -5.069  11.681  20.384  0.00  0.00    +0.120 A 
ATOM     34  C   UNL     1      -5.355  12.591  21.377  0.00  0.00    +0.137 A 
ATOM     35  N   UNL     1      -4.137  12.862  21.928  0.00  0.00    -0.247 N 
ATOM     36  N   UNL     1      -3.176  12.085  21.396  0.00  0.00    -0.065 NA
BRANCH  35  37
ATOM     37  C   UNL     1      -3.815  13.848  22.941  0.00  0.00    +0.180 C 
BRANCH  37  38
ATOM     38  C   UNL     1      -3.793  13.230  24.320  0.00  0.00    -0.026 A 
ATOM     39  C   UNL     1      -4.893  13.354  25.183  0.00  0.00    +0.007 A 
ATOM     40  C   UNL     1      -4.865  12.774  26.455  0.00  0.00    +0.019 A 
ATOM     41  C   UNL     1      -3.737  12.068  26.884  0.00  0.00    +0.052 A 
ATOM     42  C   UNL     1      -2.629  11.961  26.041  0.00  0.00    +0.019 A 
ATOM     43  C   UNL     1      -2.655  12.541  24.769  0.00  0.00    +0.007 A 
BRANCH  41  44
ATOM     44  C   UNL     1      -3.720  11.456  28.183  0.00  0.00    +0.099 C 
ATOM     45  N   UNL     1      -3.717  10.958  29.230  0.00  0.00    -0.191 NA
ENDBRANCH  41  44
ENDBRANCH  37  38
ENDBRANCH  35  37
ENDBRANCH  31  33
ENDBRANCH  30  31
ENDBRANCH  26  30
ENDBRANCH  25  28
ENDBRANCH   1  25
TORSDOF 16
