REMARK VINA RESULT:    -4.594      5.303     11.206
REMARK INTER + INTRA:         -11.433
REMARK INTER:                  -9.018
REMARK INTRA:                  -2.415
REMARK UNBOUND:                -3.213
REMARK  Name = lig_assembled_46.pdb
REMARK  17 active torsions:
REMARK  status: ('A' for Active; 'I' for Inactive)
REMARK    1  A    between atoms: _2  and  _9
REMARK    2  A    between atoms: _4  and  _19
REMARK    3  A    between atoms: _6  and  _7
REMARK    4  A    between atoms: _6  and  _19
REMARK    5  A    between atoms: _9  and  _10
REMARK    6  A    between atoms: _15  and  _35
REMARK    7  A    between atoms: _17  and  _23
REMARK    8  A    between atoms: _18  and  _22
REMARK    9  A    between atoms: _22  and  _23
REMARK   10  A    between atoms: _25  and  _26
REMARK   11  A    between atoms: _27  and  _28
REMARK   12  A    between atoms: _29  and  _31
REMARK   13  A    between atoms: _31  and  _32
REMARK   14  A    between atoms: _31  and  _33
REMARK   15  A    between atoms: _33  and  _34
REMARK   16  A    between atoms: _33  and  _35
REMARK   17  A    between atoms: _36  and  _38
REMARK                            x       y       z     vdW  Elec       q    Type
REMARK                         _______ _______ _______ _____ _____    ______ ____
ROOT
ATOM      1  C   UNL     1      -5.111   8.365  17.216  0.00  0.00    +0.163 C 
ENDROOT
BRANCH   1   2
ATOM      2  O   UNL     1      -4.027   7.440  17.398  0.00  0.00    -0.388 OA
ATOM      3  H   UNL     1      -4.105   6.725  16.761  0.00  0.00    +0.210 HD
ENDBRANCH   1   2
BRANCH   1   4
ATOM      4  C   UNL     1      -6.210   8.088  18.236  0.00  0.00    +0.141 C 
BRANCH   4   7
ATOM      5  C   UNL     1      -7.648   9.949  18.995  0.00  0.00    +0.401 C 
ATOM      6  O   UNL     1      -8.575   9.668  18.231  0.00  0.00    -0.226 OA
ATOM      7  N   UNL     1      -6.503   9.268  19.059  0.00  0.00    -0.279 N 
ATOM      8  H   UNL     1      -5.798   9.581  19.712  0.00  0.00    +0.152 HD
BRANCH   5   9
ATOM      9  O   UNL     1      -7.785  11.071  19.870  0.00  0.00    -0.444 OA
BRANCH   9  10
ATOM     10  C   UNL     1      -6.917  12.122  19.438  0.00  0.00    +0.292 C 
BRANCH  10  12
ATOM     11  N   UNL     1      -4.625  11.730  20.286  0.00  0.00    -0.131 NA
ATOM     12  C   UNL     1      -5.842  12.339  20.426  0.00  0.00    +0.120 A 
ATOM     13  C   UNL     1      -5.819  13.142  21.546  0.00  0.00    +0.137 A 
ATOM     14  N   UNL     1      -4.540  13.023  22.012  0.00  0.00    -0.247 N 
ATOM     15  N   UNL     1      -3.829  12.162  21.258  0.00  0.00    -0.065 NA
BRANCH  14  16
ATOM     16  C   UNL     1      -3.871  13.867  22.986  0.00  0.00    +0.180 C 
BRANCH  16  17
ATOM     17  C   UNL     1      -3.837  13.282  24.376  0.00  0.00    -0.026 A 
ATOM     18  C   UNL     1      -4.967  13.330  25.207  0.00  0.00    +0.005 A 
ATOM     19  C   UNL     1      -4.956  12.701  26.455  0.00  0.00    +0.000 A 
ATOM     20  C   UNL     1      -3.821  12.017  26.883  0.00  0.00    +0.000 A 
ATOM     21  C   UNL     1      -2.690  11.969  26.072  0.00  0.00    +0.000 A 
ATOM     22  C   UNL     1      -2.697  12.597  24.824  0.00  0.00    +0.005 A 
ENDBRANCH  16  17
ENDBRANCH  14  16
ENDBRANCH  10  12
ENDBRANCH   9  10
ENDBRANCH   5   9
ENDBRANCH   4   7
ENDBRANCH   1   4
BRANCH   1  23
ATOM     23  C   UNL     1      -5.691   8.260  15.795  0.00  0.00    +0.175 C 
BRANCH  23  24
ATOM     24  C   UNL     1      -4.680   8.698  14.725  0.00  0.00    +0.176 C 
ATOM     25  O   UNL     1      -3.578   7.749  14.736  0.00  0.00    -0.332 OA
ATOM     26  C   UNL     1      -2.560   7.949  13.700  0.00  0.00    +0.277 C 
ATOM     27  C   UNL     1      -2.007   9.394  13.756  0.00  0.00    +0.110 C 
ATOM     28  C   UNL     1      -3.143  10.438  13.779  0.00  0.00    +0.143 C 
ATOM     29  C   UNL     1      -4.146  10.133  14.891  0.00  0.00    +0.133 C 
BRANCH  29  30
ATOM     30  N   UNL     1      -5.269  11.083  14.847  0.00  0.00    -0.308 N 
ATOM     31  H   UNL     1      -5.948  10.977  14.107  0.00  0.00    +0.149 HD
ATOM     32  C   UNL     1      -5.449  12.077  15.722  0.00  0.00    +0.210 C 
ATOM     33  C   UNL     1      -4.382  12.228  16.823  0.00  0.00    +0.109 C 
ATOM     34  O   UNL     1      -6.407  12.849  15.669  0.00  0.00    -0.276 OA
ENDBRANCH  29  30
BRANCH  26  35
ATOM     35  C   UNL     1      -3.144   7.674  12.299  0.00  0.00    +0.414 C 
ATOM     36  O   UNL     1      -3.834   6.675  12.099  0.00  0.00    -0.240 OA
ATOM     37  O   UNL     1      -2.926   8.451  11.368  0.00  0.00    -0.240 OA
ENDBRANCH  26  35
BRANCH  26  38
ATOM     38  O   UNL     1      -1.468   7.030  13.962  0.00  0.00    -0.343 OA
ATOM     39  C   UNL     1      -1.065   6.939  15.352  0.00  0.00    +0.198 C 
ENDBRANCH  26  38
BRANCH  28  40
ATOM     40  O   UNL     1      -2.596  11.741  13.982  0.00  0.00    -0.390 OA
ATOM     41  H   UNL     1      -2.927  12.337  13.307  0.00  0.00    +0.210 HD
ENDBRANCH  28  40
ENDBRANCH  23  24
BRANCH  23  42
ATOM     42  O   UNL     1      -6.896   9.045  15.691  0.00  0.00    -0.387 OA
ATOM     43  H   UNL     1      -7.133   9.385  16.557  0.00  0.00    +0.210 HD
ENDBRANCH  23  42
ENDBRANCH   1  23
TORSDOF 15
