REMARK VINA RESULT:    -4.368      4.656     10.707
REMARK INTER + INTRA:         -11.161
REMARK INTER:                  -9.076
REMARK INTRA:                  -2.085
REMARK UNBOUND:                -2.835
REMARK  Name = lig_assembled_13.pdb
REMARK  20 active torsions:
REMARK  status: ('A' for Active; 'I' for Inactive)
REMARK    1  A    between atoms: _2  and  _9
REMARK    2  A    between atoms: _4  and  _18
REMARK    3  A    between atoms: _5  and  _11
REMARK    4  A    between atoms: _6  and  _7
REMARK    5  A    between atoms: _6  and  _18
REMARK    6  A    between atoms: _9  and  _10
REMARK    7  A    between atoms: _10  and  _12
REMARK    8  A    between atoms: _11  and  _12
REMARK    9  A    between atoms: _14  and  _34
REMARK   10  A    between atoms: _16  and  _22
REMARK   11  A    between atoms: _17  and  _21
REMARK   12  A    between atoms: _21  and  _22
REMARK   13  A    between atoms: _24  and  _25
REMARK   14  A    between atoms: _26  and  _27
REMARK   15  A    between atoms: _28  and  _30
REMARK   16  A    between atoms: _30  and  _31
REMARK   17  A    between atoms: _30  and  _32
REMARK   18  A    between atoms: _32  and  _33
REMARK   19  A    between atoms: _32  and  _34
REMARK   20  A    between atoms: _35  and  _37
REMARK                            x       y       z     vdW  Elec       q    Type
REMARK                         _______ _______ _______ _____ _____    ______ ____
ROOT
ATOM      1  C   UNL     1      -3.352  11.703  25.088  0.00  0.00    +0.163 C 
ENDROOT
BRANCH   1   2
ATOM      2  O   UNL     1      -2.281  10.751  24.981  0.00  0.00    -0.388 OA
ATOM      3  H   UNL     1      -2.424  10.192  24.213  0.00  0.00    +0.210 HD
ENDBRANCH   1   2
BRANCH   1   4
ATOM      4  C   UNL     1      -3.596  12.094  26.555  0.00  0.00    +0.175 C 
BRANCH   4   5
ATOM      5  C   UNL     1      -3.370  10.914  27.513  0.00  0.00    +0.176 C 
ATOM      6  O   UNL     1      -4.001   9.740  26.932  0.00  0.00    -0.332 OA
ATOM      7  C   UNL     1      -3.798   8.485  27.661  0.00  0.00    +0.277 C 
ATOM      8  C   UNL     1      -4.238   8.639  29.138  0.00  0.00    +0.110 C 
ATOM      9  C   UNL     1      -3.616   9.893  29.789  0.00  0.00    +0.143 C 
ATOM     10  C   UNL     1      -3.886  11.140  28.946  0.00  0.00    +0.133 C 
BRANCH  10  11
ATOM     11  N   UNL     1      -3.216  12.312  29.531  0.00  0.00    -0.308 N 
ATOM     12  H   UNL     1      -2.206  12.342  29.501  0.00  0.00    +0.149 HD
ATOM     13  C   UNL     1      -3.854  13.339  30.098  0.00  0.00    +0.210 C 
ATOM     14  C   UNL     1      -5.391  13.252  30.150  0.00  0.00    +0.109 C 
ATOM     15  O   UNL     1      -3.267  14.315  30.566  0.00  0.00    -0.276 OA
ENDBRANCH  10  11
BRANCH   7  16
ATOM     16  C   UNL     1      -2.317   8.055  27.607  0.00  0.00    +0.414 C 
ATOM     17  O   UNL     1      -1.806   7.469  28.560  0.00  0.00    -0.240 OA
ATOM     18  O   UNL     1      -1.634   8.293  26.610  0.00  0.00    -0.240 OA
ENDBRANCH   7  16
BRANCH   7  19
ATOM     19  O   UNL     1      -4.625   7.467  27.042  0.00  0.00    -0.343 OA
ATOM     20  C   UNL     1      -5.277   7.872  25.812  0.00  0.00    +0.198 C 
ENDBRANCH   7  19
BRANCH   9  21
ATOM     21  O   UNL     1      -4.164  10.080  31.094  0.00  0.00    -0.390 OA
ATOM     22  H   UNL     1      -3.522  10.526  31.651  0.00  0.00    +0.210 HD
ENDBRANCH   9  21
ENDBRANCH   4   5
BRANCH   4  23
ATOM     23  O   UNL     1      -4.930  12.615  26.715  0.00  0.00    -0.387 OA
ATOM     24  H   UNL     1      -5.566  11.900  26.630  0.00  0.00    +0.210 HD
ENDBRANCH   4  23
ENDBRANCH   1   4
BRANCH   1  25
ATOM     25  C   UNL     1      -3.022  12.952  24.276  0.00  0.00    +0.141 C 
BRANCH  25  28
ATOM     26  C   UNL     1      -3.882  12.748  21.969  0.00  0.00    +0.401 C 
ATOM     27  O   UNL     1      -2.916  12.097  21.566  0.00  0.00    -0.226 OA
ATOM     28  N   UNL     1      -4.011  13.194  23.219  0.00  0.00    -0.279 N 
ATOM     29  H   UNL     1      -4.836  13.729  23.452  0.00  0.00    +0.152 HD
BRANCH  26  30
ATOM     30  O   UNL     1      -4.938  13.061  21.057  0.00  0.00    -0.444 OA
BRANCH  30  31
ATOM     31  C   UNL     1      -5.569  11.852  20.624  0.00  0.00    +0.292 C 
BRANCH  31  33
ATOM     32  N   UNL     1      -6.674  12.305  18.456  0.00  0.00    -0.131 NA
ATOM     33  C   UNL     1      -5.613  11.792  19.152  0.00  0.00    +0.120 A 
ATOM     34  C   UNL     1      -4.706  11.263  18.267  0.00  0.00    +0.137 A 
ATOM     35  N   UNL     1      -5.304  11.423  17.050  0.00  0.00    -0.241 N 
ATOM     36  N   UNL     1      -6.463  12.091  17.163  0.00  0.00    -0.065 NA
BRANCH  35  37
ATOM     37  C   UNL     1      -4.793  11.063  15.746  0.00  0.00    +0.265 C 
BRANCH  37  38
ATOM     38  C   UNL     1      -3.812  12.075  15.227  0.00  0.00    +0.329 C 
ATOM     39  O   UNL     1      -3.850  13.284  15.405  0.00  0.00    -0.249 OA
BRANCH  38  40
ATOM     40  O   UNL     1      -2.909  11.442  14.419  0.00  0.00    -0.464 OA
BRANCH  40  41
ATOM     41  C   UNL     1      -2.770  12.009  13.107  0.00  0.00    +0.229 C 
ATOM     42  C   UNL     1      -3.829  11.385  12.216  0.00  0.00    +0.048 C 
ENDBRANCH  40  41
ENDBRANCH  38  40
ENDBRANCH  37  38
ENDBRANCH  35  37
ENDBRANCH  31  33
ENDBRANCH  30  31
ENDBRANCH  26  30
ENDBRANCH  25  28
ENDBRANCH   1  25
TORSDOF 17
