REMARK VINA RESULT:    -4.988      3.537      7.975
REMARK INTER + INTRA:         -12.006
REMARK INTER:                  -9.112
REMARK INTRA:                  -2.894
REMARK UNBOUND:                -3.373
REMARK  Name = lig_assembled_27.pdb
REMARK  16 active torsions:
REMARK  status: ('A' for Active; 'I' for Inactive)
REMARK    1  A    between atoms: _2  and  _9
REMARK    2  A    between atoms: _4  and  _18
REMARK    3  A    between atoms: _6  and  _7
REMARK    4  A    between atoms: _6  and  _18
REMARK    5  A    between atoms: _14  and  _34
REMARK    6  A    between atoms: _16  and  _22
REMARK    7  A    between atoms: _17  and  _21
REMARK    8  A    between atoms: _21  and  _22
REMARK    9  A    between atoms: _24  and  _25
REMARK   10  A    between atoms: _26  and  _27
REMARK   11  A    between atoms: _28  and  _30
REMARK   12  A    between atoms: _30  and  _31
REMARK   13  A    between atoms: _30  and  _32
REMARK   14  A    between atoms: _32  and  _33
REMARK   15  A    between atoms: _32  and  _34
REMARK   16  A    between atoms: _35  and  _37
REMARK                            x       y       z     vdW  Elec       q    Type
REMARK                         _______ _______ _______ _____ _____    ______ ____
ROOT
ATOM      1  C   UNL     1      -6.660   8.772  23.671  0.00  0.00    +0.163 C 
ENDROOT
BRANCH   1   2
ATOM      2  O   UNL     1      -5.977   8.981  24.918  0.00  0.00    -0.388 OA
ATOM      3  H   UNL     1      -6.619   9.175  25.606  0.00  0.00    +0.210 HD
ENDBRANCH   1   2
BRANCH   1   4
ATOM      4  C   UNL     1      -6.210   7.457  23.043  0.00  0.00    +0.141 C 
BRANCH   4   7
ATOM      5  C   UNL     1      -3.839   6.894  23.453  0.00  0.00    +0.401 C 
ATOM      6  O   UNL     1      -3.429   7.476  22.445  0.00  0.00    -0.226 OA
ATOM      7  N   UNL     1      -5.123   6.830  23.806  0.00  0.00    -0.279 N 
ATOM      8  H   UNL     1      -5.362   6.322  24.646  0.00  0.00    +0.152 HD
BRANCH   5   9
ATOM      9  O   UNL     1      -2.898   6.239  24.307  0.00  0.00    -0.444 OA
BRANCH   9  10
ATOM     10  C   UNL     1      -3.510   5.964  25.570  0.00  0.00    +0.292 C 
BRANCH  10  12
ATOM     11  N   UNL     1      -1.771   7.376  26.622  0.00  0.00    -0.131 NA
ATOM     12  C   UNL     1      -3.064   6.942  26.580  0.00  0.00    +0.121 A 
ATOM     13  C   UNL     1      -3.777   7.560  27.581  0.00  0.00    +0.143 A 
ATOM     14  N   UNL     1      -2.871   8.380  28.212  0.00  0.00    -0.220 N 
ATOM     15  N   UNL     1      -1.660   8.247  27.616  0.00  0.00    -0.060 NA
BRANCH  14  16
ATOM     16  C   UNL     1      -3.076   9.253  29.311  0.00  0.00    +0.068 A 
ATOM     17  C   UNL     1      -2.939   8.768  30.621  0.00  0.00    +0.028 A 
ATOM     18  C   UNL     1      -3.142   9.618  31.711  0.00  0.00    +0.003 A 
ATOM     19  C   UNL     1      -3.484  10.953  31.502  0.00  0.00    +0.020 A 
ATOM     20  C   UNL     1      -3.619  11.436  30.203  0.00  0.00    +0.043 A 
ATOM     21 CL   UNL     1      -4.039  13.085  29.946  0.00  0.00    -0.083 Cl
ATOM     22  C   UNL     1      -3.417  10.597  29.105  0.00  0.00    +0.047 A 
ENDBRANCH  14  16
ENDBRANCH  10  12
ENDBRANCH   9  10
ENDBRANCH   5   9
ENDBRANCH   4   7
ENDBRANCH   1   4
BRANCH   1  23
ATOM     23  C   UNL     1      -6.385   9.928  22.694  0.00  0.00    +0.175 C 
BRANCH  23  24
ATOM     24  C   UNL     1      -5.035  10.608  22.967  0.00  0.00    +0.176 C 
ATOM     25  O   UNL     1      -5.208  11.508  24.096  0.00  0.00    -0.332 OA
ATOM     26  C   UNL     1      -3.990  12.170  24.571  0.00  0.00    +0.277 C 
ATOM     27  C   UNL     1      -3.292  12.918  23.408  0.00  0.00    +0.110 C 
ATOM     28  C   UNL     1      -3.114  12.010  22.173  0.00  0.00    +0.143 C 
ATOM     29  C   UNL     1      -4.443  11.370  21.767  0.00  0.00    +0.133 C 
BRANCH  29  30
ATOM     30  N   UNL     1      -4.245  10.441  20.644  0.00  0.00    -0.308 N 
ATOM     31  H   UNL     1      -3.665   9.628  20.800  0.00  0.00    +0.149 HD
ATOM     32  C   UNL     1      -4.781  10.601  19.431  0.00  0.00    +0.210 C 
ATOM     33  C   UNL     1      -5.637  11.863  19.217  0.00  0.00    +0.109 C 
ATOM     34  O   UNL     1      -4.610   9.799  18.513  0.00  0.00    -0.276 OA
ENDBRANCH  29  30
BRANCH  26  35
ATOM     35  C   UNL     1      -3.013  11.145  25.185  0.00  0.00    +0.414 C 
ATOM     36  O   UNL     1      -3.212   9.939  25.045  0.00  0.00    -0.240 OA
ATOM     37  O   UNL     1      -2.028  11.524  25.819  0.00  0.00    -0.240 OA
ENDBRANCH  26  35
BRANCH  28  38
ATOM     38  O   UNL     1      -2.608  12.777  21.080  0.00  0.00    -0.390 OA
ATOM     39  H   UNL     1      -1.650  12.809  21.127  0.00  0.00    +0.210 HD
ENDBRANCH  28  38
BRANCH  26  40
ATOM     40  O   UNL     1      -4.371  13.144  25.577  0.00  0.00    -0.343 OA
ATOM     41  C   UNL     1      -5.465  12.738  26.438  0.00  0.00    +0.198 C 
ENDBRANCH  26  40
ENDBRANCH  23  24
BRANCH  23  42
ATOM     42  O   UNL     1      -7.451  10.897  22.758  0.00  0.00    -0.387 OA
ATOM     43  H   UNL     1      -7.146  11.733  22.396  0.00  0.00    +0.210 HD
ENDBRANCH  23  42
ENDBRANCH   1  23
TORSDOF 14
