REMARK VINA RESULT:    -5.294      4.777     10.698
REMARK INTER + INTRA:         -11.476
REMARK INTER:                  -8.783
REMARK INTRA:                  -2.693
REMARK UNBOUND:                -2.004
REMARK  Name = lig_assembled_6.pdb
REMARK  17 active torsions:
REMARK  status: ('A' for Active; 'I' for Inactive)
REMARK    1  A    between atoms: _2  and  _10
REMARK    2  A    between atoms: _3  and  _13
REMARK    3  A    between atoms: _5  and  _21
REMARK    4  A    between atoms: _7  and  _8
REMARK    5  A    between atoms: _7  and  _21
REMARK    6  A    between atoms: _17  and  _37
REMARK    7  A    between atoms: _19  and  _25
REMARK    8  A    between atoms: _20  and  _24
REMARK    9  A    between atoms: _24  and  _25
REMARK   10  A    between atoms: _27  and  _28
REMARK   11  A    between atoms: _29  and  _30
REMARK   12  A    between atoms: _31  and  _33
REMARK   13  A    between atoms: _33  and  _34
REMARK   14  A    between atoms: _33  and  _35
REMARK   15  A    between atoms: _35  and  _36
REMARK   16  A    between atoms: _35  and  _37
REMARK   17  A    between atoms: _38  and  _40
REMARK                            x       y       z     vdW  Elec       q    Type
REMARK                         _______ _______ _______ _____ _____    ______ ____
ROOT
ATOM      1  C   UNL     1      -2.320   9.744  27.062  0.00  0.00    +0.163 C 
ENDROOT
BRANCH   1   2
ATOM      2  O   UNL     1      -1.165  10.106  26.288  0.00  0.00    -0.388 OA
ATOM      3  H   UNL     1      -0.709  10.836  26.715  0.00  0.00    +0.210 HD
ENDBRANCH   1   2
BRANCH   1   4
ATOM      4  C   UNL     1      -1.889   9.064  28.357  0.00  0.00    +0.141 C 
BRANCH   4   7
ATOM      5  C   UNL     1      -3.303   9.040  30.383  0.00  0.00    +0.401 C 
ATOM      6  O   UNL     1      -3.618   7.854  30.264  0.00  0.00    -0.226 OA
ATOM      7  N   UNL     1      -2.504   9.688  29.535  0.00  0.00    -0.279 N 
ATOM      8  H   UNL     1      -2.311  10.664  29.712  0.00  0.00    +0.152 HD
BRANCH   5   9
ATOM      9  O   UNL     1      -3.816   9.787  31.489  0.00  0.00    -0.444 OA
BRANCH   9  10
ATOM     10  C   UNL     1      -2.740  10.449  32.160  0.00  0.00    +0.292 C 
BRANCH  10  12
ATOM     11  N   UNL     1      -1.769  12.726  32.139  0.00  0.00    -0.131 NA
ATOM     12  C   UNL     1      -2.853  11.910  31.995  0.00  0.00    +0.121 A 
ATOM     13  C   UNL     1      -3.953  12.676  31.682  0.00  0.00    +0.143 A 
ATOM     14  N   UNL     1      -3.480  13.966  31.614  0.00  0.00    -0.220 N 
ATOM     15  N   UNL     1      -2.159  13.974  31.915  0.00  0.00    -0.060 NA
BRANCH  14  16
ATOM     16  C   UNL     1      -4.177  15.150  31.254  0.00  0.00    +0.067 A 
ATOM     17  C   UNL     1      -3.902  16.366  31.900  0.00  0.00    +0.034 A 
ATOM     18  C   UNL     1      -4.639  17.512  31.580  0.00  0.00    +0.086 A 
ATOM     19  C   UNL     1      -5.649  17.444  30.613  0.00  0.00    +0.273 A 
ATOM     20  C   UNL     1      -5.913  16.243  29.945  0.00  0.00    +0.086 A 
ATOM     21  C   UNL     1      -5.174  15.098  30.266  0.00  0.00    +0.034 A 
BRANCH  19  22
ATOM     22  N   UNL     1      -6.447  18.640  30.314  0.00  0.00    +0.080 N 
ATOM     23  O   UNL     1      -7.113  19.132  31.236  0.00  0.00    +0.041 OA
ATOM     24  O   UNL     1      -6.412  19.082  29.157  0.00  0.00    -0.576 OA
ENDBRANCH  19  22
ENDBRANCH  14  16
ENDBRANCH  10  12
ENDBRANCH   9  10
ENDBRANCH   5   9
ENDBRANCH   4   7
ENDBRANCH   1   4
BRANCH   1  25
ATOM     25  C   UNL     1      -3.241   8.802  26.268  0.00  0.00    +0.175 C 
BRANCH  25  26
ATOM     26  C   UNL     1      -4.065   9.553  25.212  0.00  0.00    +0.176 C 
ATOM     27  O   UNL     1      -3.198   9.824  24.077  0.00  0.00    -0.332 OA
ATOM     28  C   UNL     1      -3.845  10.447  22.919  0.00  0.00    +0.277 C 
ATOM     29  C   UNL     1      -4.575  11.746  23.341  0.00  0.00    +0.110 C 
ATOM     30  C   UNL     1      -5.486  11.514  24.565  0.00  0.00    +0.143 C 
ATOM     31  C   UNL     1      -4.712  10.859  25.709  0.00  0.00    +0.133 C 
BRANCH  31  32
ATOM     32  N   UNL     1      -5.610  10.565  26.837  0.00  0.00    -0.308 N 
ATOM     33  H   UNL     1      -6.276   9.813  26.726  0.00  0.00    +0.149 HD
ATOM     34  C   UNL     1      -5.602  11.227  27.998  0.00  0.00    +0.210 C 
ATOM     35  C   UNL     1      -4.594  12.384  28.125  0.00  0.00    +0.109 C 
ATOM     36  O   UNL     1      -6.356  10.948  28.931  0.00  0.00    -0.276 OA
ENDBRANCH  31  32
BRANCH  28  37
ATOM     37  C   UNL     1      -4.853   9.477  22.268  0.00  0.00    +0.414 C 
ATOM     38  O   UNL     1      -4.700   8.261  22.373  0.00  0.00    -0.240 OA
ATOM     39  O   UNL     1      -5.819   9.910  21.638  0.00  0.00    -0.240 OA
ENDBRANCH  28  37
BRANCH  30  40
ATOM     40  O   UNL     1      -6.019  12.762  25.011  0.00  0.00    -0.390 OA
ATOM     41  H   UNL     1      -5.428  13.149  25.661  0.00  0.00    +0.210 HD
ENDBRANCH  30  40
BRANCH  28  42
ATOM     42  O   UNL     1      -2.813  10.794  21.960  0.00  0.00    -0.343 OA
ATOM     43  C   UNL     1      -3.067  11.999  21.195  0.00  0.00    +0.198 C 
ENDBRANCH  28  42
ENDBRANCH  25  26
BRANCH  25  44
ATOM     44  O   UNL     1      -4.115   8.089  27.165  0.00  0.00    -0.387 OA
ATOM     45  H   UNL     1      -3.623   7.391  27.605  0.00  0.00    +0.210 HD
ENDBRANCH  25  44
ENDBRANCH   1  25
TORSDOF 15
