REMARK VINA RESULT:    -5.511      3.974     10.367
REMARK INTER + INTRA:         -11.352
REMARK INTER:                  -8.809
REMARK INTRA:                  -2.542
REMARK UNBOUND:                -1.813
REMARK  Name = lig_assembled_40.pdb
REMARK  17 active torsions:
REMARK  status: ('A' for Active; 'I' for Inactive)
REMARK    1  A    between atoms: _2  and  _9
REMARK    2  A    between atoms: _4  and  _19
REMARK    3  A    between atoms: _6  and  _7
REMARK    4  A    between atoms: _6  and  _19
REMARK    5  A    between atoms: _12  and  _13
REMARK    6  A    between atoms: _15  and  _35
REMARK    7  A    between atoms: _17  and  _23
REMARK    8  A    between atoms: _18  and  _22
REMARK    9  A    between atoms: _22  and  _23
REMARK   10  A    between atoms: _25  and  _26
REMARK   11  A    between atoms: _27  and  _28
REMARK   12  A    between atoms: _29  and  _31
REMARK   13  A    between atoms: _31  and  _32
REMARK   14  A    between atoms: _31  and  _33
REMARK   15  A    between atoms: _33  and  _34
REMARK   16  A    between atoms: _33  and  _35
REMARK   17  A    between atoms: _36  and  _38
REMARK                            x       y       z     vdW  Elec       q    Type
REMARK                         _______ _______ _______ _____ _____    ______ ____
ROOT
ATOM      1  C   UNL     1      -2.327   9.827  27.037  0.00  0.00    +0.163 C 
ENDROOT
BRANCH   1   2
ATOM      2  O   UNL     1      -1.114  10.023  26.290  0.00  0.00    -0.388 OA
ATOM      3  H   UNL     1      -0.841   9.191  25.898  0.00  0.00    +0.210 HD
ENDBRANCH   1   2
BRANCH   1   4
ATOM      4  C   UNL     1      -2.018   9.137  28.361  0.00  0.00    +0.141 C 
BRANCH   4   7
ATOM      5  C   UNL     1      -3.625   8.676  30.181  0.00  0.00    +0.401 C 
ATOM      6  O   UNL     1      -3.544   7.451  30.070  0.00  0.00    -0.226 OA
ATOM      7  N   UNL     1      -2.952   9.540  29.419  0.00  0.00    -0.279 N 
ATOM      8  H   UNL     1      -3.092  10.528  29.580  0.00  0.00    +0.152 HD
BRANCH   5   9
ATOM      9  O   UNL     1      -4.490   9.228  31.176  0.00  0.00    -0.444 OA
BRANCH   9  10
ATOM     10  C   UNL     1      -3.728   9.566  32.338  0.00  0.00    +0.292 C 
BRANCH  10  12
ATOM     11  N   UNL     1      -2.064  11.394  32.220  0.00  0.00    -0.131 NA
ATOM     12  C   UNL     1      -3.365  10.995  32.316  0.00  0.00    +0.121 A 
ATOM     13  C   UNL     1      -4.172  12.106  32.367  0.00  0.00    +0.143 A 
ATOM     14  N   UNL     1      -3.314  13.178  32.265  0.00  0.00    -0.220 N 
ATOM     15  N   UNL     1      -2.038  12.720  32.199  0.00  0.00    -0.060 NA
BRANCH  14  16
ATOM     16  C   UNL     1      -3.628  14.559  32.189  0.00  0.00    +0.067 A 
ATOM     17  C   UNL     1      -4.330  15.076  31.094  0.00  0.00    +0.028 A 
ATOM     18  C   UNL     1      -4.572  16.449  30.999  0.00  0.00    +0.005 A 
ATOM     19  C   UNL     1      -4.117  17.323  31.991  0.00  0.00    -0.050 A 
ATOM     20  C   UNL     1      -3.446  16.800  33.103  0.00  0.00    +0.005 A 
ATOM     21  C   UNL     1      -4.333  18.802  31.869  0.00  0.00    +0.044 C 
ATOM     22  C   UNL     1      -3.202  15.428  33.205  0.00  0.00    +0.028 A 
ENDBRANCH  14  16
ENDBRANCH  10  12
ENDBRANCH   9  10
ENDBRANCH   5   9
ENDBRANCH   4   7
ENDBRANCH   1   4
BRANCH   1  23
ATOM     23  C   UNL     1      -3.333   8.981  26.238  0.00  0.00    +0.175 C 
BRANCH  23  24
ATOM     24  C   UNL     1      -4.134   9.827  25.237  0.00  0.00    +0.176 C 
ATOM     25  O   UNL     1      -3.253  10.161  24.130  0.00  0.00    -0.332 OA
ATOM     26  C   UNL     1      -3.879  10.883  23.018  0.00  0.00    +0.277 C 
ATOM     27  C   UNL     1      -4.583  12.163  23.532  0.00  0.00    +0.110 C 
ATOM     28  C   UNL     1      -5.507  11.863  24.731  0.00  0.00    +0.143 C 
ATOM     29  C   UNL     1      -4.754  11.107  25.827  0.00  0.00    +0.133 C 
BRANCH  29  30
ATOM     30  N   UNL     1      -5.666  10.750  26.925  0.00  0.00    -0.308 N 
ATOM     31  H   UNL     1      -6.354  10.031  26.753  0.00  0.00    +0.149 HD
ATOM     32  C   UNL     1      -5.644  11.316  28.135  0.00  0.00    +0.210 C 
ATOM     33  C   UNL     1      -4.601  12.427  28.359  0.00  0.00    +0.109 C 
ATOM     34  O   UNL     1      -6.410  10.986  29.041  0.00  0.00    -0.276 OA
ENDBRANCH  29  30
BRANCH  26  35
ATOM     35  C   UNL     1      -4.904   9.987  22.292  0.00  0.00    +0.414 C 
ATOM     36  O   UNL     1      -4.590   8.854  21.930  0.00  0.00    -0.240 OA
ATOM     37  O   UNL     1      -6.043  10.397  22.068  0.00  0.00    -0.240 OA
ENDBRANCH  26  35
BRANCH  28  38
ATOM     38  O   UNL     1      -6.015  13.085  25.266  0.00  0.00    -0.390 OA
ATOM     39  H   UNL     1      -6.969  13.109  25.162  0.00  0.00    +0.210 HD
ENDBRANCH  28  38
BRANCH  26  40
ATOM     40  O   UNL     1      -2.833  11.277  22.093  0.00  0.00    -0.343 OA
ATOM     41  C   UNL     1      -3.276  12.091  20.978  0.00  0.00    +0.198 C 
ENDBRANCH  26  40
ENDBRANCH  23  24
BRANCH  23  42
ATOM     42  O   UNL     1      -4.228   8.295  27.137  0.00  0.00    -0.387 OA
ATOM     43  H   UNL     1      -4.989   8.853  27.319  0.00  0.00    +0.210 HD
ENDBRANCH  23  42
ENDBRANCH   1  23
TORSDOF 14
