REMARK VINA RESULT:    -4.613      4.202      7.357
REMARK INTER + INTRA:         -12.177
REMARK INTER:                  -9.069
REMARK INTRA:                  -3.108
REMARK UNBOUND:                -3.114
REMARK  Name = lig_assembled_10.pdb
REMARK  21 active torsions:
REMARK  status: ('A' for Active; 'I' for Inactive)
REMARK    1  A    between atoms: _2  and  _9
REMARK    2  A    between atoms: _4  and  _20
REMARK    3  A    between atoms: _5  and  _9
REMARK    4  A    between atoms: _5  and  _12
REMARK    5  A    between atoms: _6  and  _7
REMARK    6  A    between atoms: _6  and  _20
REMARK    7  A    between atoms: _9  and  _10
REMARK    8  A    between atoms: _10  and  _11
REMARK    9  A    between atoms: _11  and  _14
REMARK   10  A    between atoms: _16  and  _36
REMARK   11  A    between atoms: _18  and  _24
REMARK   12  A    between atoms: _19  and  _23
REMARK   13  A    between atoms: _23  and  _24
REMARK   14  A    between atoms: _26  and  _27
REMARK   15  A    between atoms: _28  and  _29
REMARK   16  A    between atoms: _30  and  _32
REMARK   17  A    between atoms: _32  and  _33
REMARK   18  A    between atoms: _32  and  _34
REMARK   19  A    between atoms: _34  and  _35
REMARK   20  A    between atoms: _34  and  _36
REMARK   21  A    between atoms: _37  and  _39
REMARK                            x       y       z     vdW  Elec       q    Type
REMARK                         _______ _______ _______ _____ _____    ______ ____
ROOT
ATOM      1  C   UNL     1      -5.148   7.373  23.820  0.00  0.00    +0.163 C 
ENDROOT
BRANCH   1   2
ATOM      2  O   UNL     1      -3.974   6.886  24.490  0.00  0.00    -0.388 OA
ATOM      3  H   UNL     1      -3.901   7.303  25.352  0.00  0.00    +0.210 HD
ENDBRANCH   1   2
BRANCH   1   4
ATOM      4  C   UNL     1      -4.917   8.787  23.261  0.00  0.00    +0.175 C 
BRANCH   4   5
ATOM      5  C   UNL     1      -3.889   9.574  24.088  0.00  0.00    +0.176 C 
ATOM      6  O   UNL     1      -4.289   9.502  25.484  0.00  0.00    -0.332 OA
ATOM      7  C   UNL     1      -3.361  10.112  26.441  0.00  0.00    +0.277 C 
ATOM      8  C   UNL     1      -3.075  11.584  26.054  0.00  0.00    +0.110 C 
ATOM      9  C   UNL     1      -2.677  11.715  24.569  0.00  0.00    +0.143 C 
ATOM     10  C   UNL     1      -3.709  11.043  23.662  0.00  0.00    +0.133 C 
BRANCH  10  11
ATOM     11  N   UNL     1      -3.275  11.098  22.258  0.00  0.00    -0.308 N 
ATOM     12  H   UNL     1      -2.436  10.596  22.003  0.00  0.00    +0.149 HD
ATOM     13  C   UNL     1      -3.917  11.769  21.297  0.00  0.00    +0.210 C 
ATOM     14  C   UNL     1      -5.178  12.545  21.723  0.00  0.00    +0.109 C 
ATOM     15  O   UNL     1      -3.538  11.785  20.125  0.00  0.00    -0.276 OA
ENDBRANCH  10  11
BRANCH   7  16
ATOM     16  C   UNL     1      -2.035   9.326  26.495  0.00  0.00    +0.414 C 
ATOM     17  O   UNL     1      -0.967   9.921  26.638  0.00  0.00    -0.240 OA
ATOM     18  O   UNL     1      -2.032   8.099  26.395  0.00  0.00    -0.240 OA
ENDBRANCH   7  16
BRANCH   7  19
ATOM     19  O   UNL     1      -3.991  10.098  27.748  0.00  0.00    -0.343 OA
ATOM     20  C   UNL     1      -4.817  11.253  28.043  0.00  0.00    +0.198 C 
ENDBRANCH   7  19
BRANCH   9  21
ATOM     21  O   UNL     1      -2.570  13.095  24.218  0.00  0.00    -0.390 OA
ATOM     22  H   UNL     1      -2.047  13.555  24.879  0.00  0.00    +0.210 HD
ENDBRANCH   9  21
ENDBRANCH   4   5
BRANCH   4  23
ATOM     23  O   UNL     1      -6.163   9.508  23.202  0.00  0.00    -0.387 OA
ATOM     24  H   UNL     1      -6.039  10.393  23.554  0.00  0.00    +0.210 HD
ENDBRANCH   4  23
ENDBRANCH   1   4
BRANCH   1  25
ATOM     25  C   UNL     1      -5.527   6.431  22.682  0.00  0.00    +0.141 C 
BRANCH  25  28
ATOM     26  C   UNL     1      -5.885   6.874  20.277  0.00  0.00    +0.401 C 
ATOM     27  O   UNL     1      -5.103   5.997  19.903  0.00  0.00    -0.226 OA
ATOM     28  N   UNL     1      -6.139   7.149  21.557  0.00  0.00    -0.279 N 
ATOM     29  H   UNL     1      -6.789   7.895  21.765  0.00  0.00    +0.152 HD
BRANCH  26  30
ATOM     30  O   UNL     1      -6.569   7.659  19.297  0.00  0.00    -0.444 OA
BRANCH  30  31
ATOM     31  C   UNL     1      -6.201   9.033  19.444  0.00  0.00    +0.292 C 
BRANCH  31  33
ATOM     32  N   UNL     1      -5.586  10.796  17.816  0.00  0.00    -0.131 NA
ATOM     33  C   UNL     1      -5.482   9.500  18.243  0.00  0.00    +0.120 A 
ATOM     34  C   UNL     1      -4.640   8.813  17.397  0.00  0.00    +0.138 A 
ATOM     35  N   UNL     1      -4.230   9.751  16.501  0.00  0.00    -0.237 N 
ATOM     36  N   UNL     1      -4.822  10.938  16.743  0.00  0.00    -0.065 NA
BRANCH  35  37
ATOM     37  C   UNL     1      -3.298   9.662  15.387  0.00  0.00    +0.227 C 
BRANCH  37  38
ATOM     38  C   UNL     1      -3.561  10.645  14.267  0.00  0.00    +0.330 C 
ATOM     39  O   UNL     1      -2.655  11.286  13.747  0.00  0.00    -0.249 OA
BRANCH  38  40
ATOM     40  O   UNL     1      -4.832  10.760  13.827  0.00  0.00    -0.479 OA
ATOM     41  H   UNL     1      -5.534  10.321  14.373  0.00  0.00    +0.295 HD
ENDBRANCH  38  40
ENDBRANCH  37  38
BRANCH  37  42
ATOM     42  C   UNL     1      -3.069   8.235  14.870  0.00  0.00    +0.158 C 
BRANCH  42  43
ATOM     43  C   UNL     1      -1.611   7.937  14.660  0.00  0.00    +0.307 C 
ATOM     44  O   UNL     1      -1.018   7.020  15.214  0.00  0.00    -0.251 OA
BRANCH  43  45
ATOM     45  O   UNL     1      -1.026   8.725  13.738  0.00  0.00    -0.481 OA
ATOM     46  H   UNL     1      -1.322   9.656  13.738  0.00  0.00    +0.295 HD
ENDBRANCH  43  45
ENDBRANCH  42  43
ENDBRANCH  37  42
ENDBRANCH  35  37
ENDBRANCH  31  33
ENDBRANCH  30  31
ENDBRANCH  26  30
ENDBRANCH  25  28
ENDBRANCH   1  25
TORSDOF 19
