REMARK VINA RESULT:    -3.494      2.610      6.822
REMARK INTER + INTRA:         -11.706
REMARK INTER:                  -7.068
REMARK INTRA:                  -4.638
REMARK UNBOUND:                -4.638
REMARK  Name = lig_assembled_11.pdb
REMARK  22 active torsions:
REMARK  status: ('A' for Active; 'I' for Inactive)
REMARK    1  A    between atoms: _2  and  _9
REMARK    2  A    between atoms: _4  and  _21
REMARK    3  A    between atoms: _5  and  _9
REMARK    4  A    between atoms: _5  and  _13
REMARK    5  A    between atoms: _6  and  _7
REMARK    6  A    between atoms: _6  and  _21
REMARK    7  A    between atoms: _9  and  _10
REMARK    8  A    between atoms: _10  and  _11
REMARK    9  A    between atoms: _11  and  _12
REMARK   10  A    between atoms: _12  and  _15
REMARK   11  A    between atoms: _17  and  _37
REMARK   12  A    between atoms: _19  and  _25
REMARK   13  A    between atoms: _20  and  _24
REMARK   14  A    between atoms: _24  and  _25
REMARK   15  A    between atoms: _27  and  _28
REMARK   16  A    between atoms: _29  and  _30
REMARK   17  A    between atoms: _31  and  _33
REMARK   18  A    between atoms: _33  and  _34
REMARK   19  A    between atoms: _33  and  _35
REMARK   20  A    between atoms: _35  and  _36
REMARK   21  A    between atoms: _35  and  _37
REMARK   22  A    between atoms: _38  and  _40
REMARK                            x       y       z     vdW  Elec       q    Type
REMARK                         _______ _______ _______ _____ _____    ______ ____
ROOT
ATOM      1  C   UNL     1      -2.841   8.083  28.797  0.00  0.00    +0.163 C 
ENDROOT
BRANCH   1   2
ATOM      2  O   UNL     1      -2.143   9.303  28.495  0.00  0.00    -0.388 OA
ATOM      3  H   UNL     1      -2.282   9.936  29.203  0.00  0.00    +0.210 HD
ENDBRANCH   1   2
BRANCH   1   4
ATOM      4  C   UNL     1      -4.286   8.132  28.271  0.00  0.00    +0.175 C 
BRANCH   4   5
ATOM      5  C   UNL     1      -4.980   9.459  28.609  0.00  0.00    +0.176 C 
ATOM      6  O   UNL     1      -4.668   9.787  29.991  0.00  0.00    -0.332 OA
ATOM      7  C   UNL     1      -5.163  11.084  30.462  0.00  0.00    +0.277 C 
ATOM      8  C   UNL     1      -6.690  11.198  30.228  0.00  0.00    +0.110 C 
ATOM      9  C   UNL     1      -7.074  10.828  28.780  0.00  0.00    +0.143 C 
ATOM     10  C   UNL     1      -6.505   9.462  28.394  0.00  0.00    +0.133 C 
BRANCH  10  11
ATOM     11  N   UNL     1      -6.803   9.159  26.986  0.00  0.00    -0.308 N 
ATOM     12  H   UNL     1      -6.370   9.735  26.278  0.00  0.00    +0.149 HD
ATOM     13  C   UNL     1      -7.609   8.172  26.582  0.00  0.00    +0.210 C 
ATOM     14  C   UNL     1      -8.274   7.329  27.687  0.00  0.00    +0.109 C 
ATOM     15  O   UNL     1      -7.829   7.932  25.395  0.00  0.00    -0.276 OA
ENDBRANCH  10  11
BRANCH   7  16
ATOM     16  C   UNL     1      -4.443  12.240  29.737  0.00  0.00    +0.414 C 
ATOM     17  O   UNL     1      -3.261  12.129  29.414  0.00  0.00    -0.240 OA
ATOM     18  O   UNL     1      -5.044  13.283  29.475  0.00  0.00    -0.240 OA
ENDBRANCH   7  16
BRANCH   7  19
ATOM     19  O   UNL     1      -4.911  11.170  31.888  0.00  0.00    -0.343 OA
ATOM     20  C   UNL     1      -5.240   9.975  32.641  0.00  0.00    +0.198 C 
ENDBRANCH   7  19
BRANCH   9  21
ATOM     21  O   UNL     1      -8.496  10.799  28.651  0.00  0.00    -0.390 OA
ATOM     22  H   UNL     1      -8.896  11.206  29.423  0.00  0.00    +0.210 HD
ENDBRANCH   9  21
ENDBRANCH   4   5
BRANCH   4  23
ATOM     23  O   UNL     1      -5.044   7.025  28.800  0.00  0.00    -0.387 OA
ATOM     24  H   UNL     1      -5.183   7.153  29.741  0.00  0.00    +0.210 HD
ENDBRANCH   4  23
ENDBRANCH   1   4
BRANCH   1  25
ATOM     25  C   UNL     1      -2.112   6.897  28.176  0.00  0.00    +0.141 C 
BRANCH  25  28
ATOM     26  C   UNL     1      -2.250   6.065  25.853  0.00  0.00    +0.401 C 
ATOM     27  O   UNL     1      -1.049   6.228  25.623  0.00  0.00    -0.226 OA
ATOM     28  N   UNL     1      -2.833   6.357  27.017  0.00  0.00    -0.279 N 
ATOM     29  H   UNL     1      -3.827   6.198  27.106  0.00  0.00    +0.152 HD
BRANCH  26  30
ATOM     30  O   UNL     1      -3.089   5.537  24.822  0.00  0.00    -0.444 OA
BRANCH  30  31
ATOM     31  C   UNL     1      -4.313   6.276  24.777  0.00  0.00    +0.292 C 
BRANCH  31  33
ATOM     32  N   UNL     1      -3.581   7.559  22.790  0.00  0.00    -0.131 NA
ATOM     33  C   UNL     1      -4.123   7.543  24.046  0.00  0.00    +0.120 A 
ATOM     34  C   UNL     1      -4.423   8.832  24.421  0.00  0.00    +0.138 A 
ATOM     35  N   UNL     1      -4.001   9.596  23.371  0.00  0.00    -0.238 N 
ATOM     36  N   UNL     1      -3.523   8.819  22.380  0.00  0.00    -0.065 NA
BRANCH  35  37
ATOM     37  C   UNL     1      -4.126  11.030  23.134  0.00  0.00    +0.217 C 
BRANCH  37  38
ATOM     38  C   UNL     1      -4.716  11.380  21.776  0.00  0.00    +0.330 C 
ATOM     39  O   UNL     1      -4.228  12.146  20.960  0.00  0.00    -0.249 OA
BRANCH  38  40
ATOM     40  O   UNL     1      -5.893  10.760  21.511  0.00  0.00    -0.479 OA
ATOM     41  H   UNL     1      -6.699  11.312  21.511  0.00  0.00    +0.295 HD
ENDBRANCH  38  40
ENDBRANCH  37  38
BRANCH  37  42
ATOM     42  C   UNL     1      -2.808  11.775  23.417  0.00  0.00    +0.049 C 
BRANCH  42  43
ATOM     43  C   UNL     1      -2.873  12.787  24.568  0.00  0.00    +0.123 C 
BRANCH  43  44
ATOM     44  C   UNL     1      -2.972  12.085  25.903  0.00  0.00    +0.305 C 
ATOM     45  O   UNL     1      -2.129  11.329  26.355  0.00  0.00    -0.251 OA
BRANCH  44  46
ATOM     46  O   UNL     1      -4.124  12.363  26.552  0.00  0.00    -0.481 OA
ATOM     47  H   UNL     1      -4.522  13.223  26.321  0.00  0.00    +0.295 HD
ENDBRANCH  44  46
ENDBRANCH  43  44
ENDBRANCH  42  43
ENDBRANCH  37  42
ENDBRANCH  35  37
ENDBRANCH  31  33
ENDBRANCH  30  31
ENDBRANCH  26  30
ENDBRANCH  25  28
ENDBRANCH   1  25
TORSDOF 20
