REMARK VINA RESULT:    -4.934      3.806     10.803
REMARK INTER + INTRA:         -13.613
REMARK INTER:                  -9.977
REMARK INTRA:                  -3.635
REMARK UNBOUND:                -3.487
REMARK  Name = lig_assembled_90.pdb
REMARK  22 active torsions:
REMARK  status: ('A' for Active; 'I' for Inactive)
REMARK    1  A    between atoms: _2  and  _13
REMARK    2  A    between atoms: _3  and  _15
REMARK    3  A    between atoms: _4  and  _17
REMARK    4  A    between atoms: _8  and  _28
REMARK    5  A    between atoms: _10  and  _11
REMARK    6  A    between atoms: _10  and  _28
REMARK    7  A    between atoms: _13  and  _14
REMARK    8  A    between atoms: _15  and  _16
REMARK    9  A    between atoms: _16  and  _17
REMARK   10  A    between atoms: _16  and  _22
REMARK   11  A    between atoms: _24  and  _44
REMARK   12  A    between atoms: _26  and  _32
REMARK   13  A    between atoms: _27  and  _31
REMARK   14  A    between atoms: _31  and  _32
REMARK   15  A    between atoms: _34  and  _35
REMARK   16  A    between atoms: _36  and  _37
REMARK   17  A    between atoms: _38  and  _40
REMARK   18  A    between atoms: _40  and  _41
REMARK   19  A    between atoms: _40  and  _42
REMARK   20  A    between atoms: _42  and  _43
REMARK   21  A    between atoms: _42  and  _44
REMARK   22  A    between atoms: _45  and  _47
REMARK                            x       y       z     vdW  Elec       q    Type
REMARK                         _______ _______ _______ _____ _____    ______ ____
ROOT
ATOM      1  C   UNL     1      -4.092  12.745  22.083  0.00  0.00    +0.401 C 
ATOM      2  O   UNL     1      -3.134  12.101  21.650  0.00  0.00    -0.226 OA
ATOM      3  N   UNL     1      -4.156  13.250  23.315  0.00  0.00    -0.279 N 
ATOM      4  H   UNL     1      -4.980  13.772  23.575  0.00  0.00    +0.152 HD
ENDROOT
BRANCH   3   5
ATOM      5  C   UNL     1      -3.095  13.088  24.317  0.00  0.00    +0.141 C 
BRANCH   5   6
ATOM      6  C   UNL     1      -3.267  11.807  25.127  0.00  0.00    +0.163 C 
BRANCH   6   7
ATOM      7  O   UNL     1      -2.090  10.990  25.011  0.00  0.00    -0.388 OA
ATOM      8  H   UNL     1      -1.394  11.352  25.564  0.00  0.00    +0.210 HD
ENDBRANCH   6   7
BRANCH   6   9
ATOM      9  C   UNL     1      -3.547  12.162  26.597  0.00  0.00    +0.175 C 
BRANCH   9  10
ATOM     10  C   UNL     1      -3.346  10.960  27.530  0.00  0.00    +0.176 C 
ATOM     11  O   UNL     1      -3.990   9.807  26.921  0.00  0.00    -0.332 OA
ATOM     12  C   UNL     1      -3.810   8.534  27.625  0.00  0.00    +0.277 C 
ATOM     13  C   UNL     1      -4.257   8.664  29.102  0.00  0.00    +0.110 C 
ATOM     14  C   UNL     1      -3.622   9.895  29.783  0.00  0.00    +0.143 C 
ATOM     15  C   UNL     1      -3.868  11.163  28.965  0.00  0.00    +0.133 C 
BRANCH  15  16
ATOM     16  N   UNL     1      -3.184  12.312  29.579  0.00  0.00    -0.308 N 
ATOM     17  H   UNL     1      -2.174  12.303  29.601  0.00  0.00    +0.149 HD
ATOM     18  C   UNL     1      -3.811  13.366  30.108  0.00  0.00    +0.210 C 
ATOM     19  C   UNL     1      -5.351  13.337  30.081  0.00  0.00    +0.109 C 
ATOM     20  O   UNL     1      -3.212  14.322  30.602  0.00  0.00    -0.276 OA
ENDBRANCH  15  16
BRANCH  12  21
ATOM     21  C   UNL     1      -2.335   8.083  27.571  0.00  0.00    +0.414 C 
ATOM     22  O   UNL     1      -1.618   8.422  26.631  0.00  0.00    -0.240 OA
ATOM     23  O   UNL     1      -1.864   7.382  28.467  0.00  0.00    -0.240 OA
ENDBRANCH  12  21
BRANCH  14  24
ATOM     24  O   UNL     1      -4.176  10.062  31.089  0.00  0.00    -0.390 OA
ATOM     25  H   UNL     1      -4.308   9.202  31.494  0.00  0.00    +0.210 HD
ENDBRANCH  14  24
BRANCH  12  26
ATOM     26  O   UNL     1      -4.648   7.542  26.979  0.00  0.00    -0.343 OA
ATOM     27  C   UNL     1      -4.883   7.765  25.566  0.00  0.00    +0.198 C 
ENDBRANCH  12  26
ENDBRANCH   9  10
BRANCH   9  28
ATOM     28  O   UNL     1      -4.886  12.680  26.736  0.00  0.00    -0.387 OA
ATOM     29  H   UNL     1      -4.955  13.172  27.558  0.00  0.00    +0.210 HD
ENDBRANCH   9  28
ENDBRANCH   6   9
ENDBRANCH   5   6
ENDBRANCH   3   5
BRANCH   1  30
ATOM     30  O   UNL     1      -5.213  12.981  21.227  0.00  0.00    -0.444 OA
BRANCH  30  31
ATOM     31  C   UNL     1      -6.340  12.238  21.698  0.00  0.00    +0.292 C 
BRANCH  31  33
ATOM     32  N   UNL     1      -6.277  10.805  19.675  0.00  0.00    -0.131 NA
ATOM     33  C   UNL     1      -6.402  10.921  21.035  0.00  0.00    +0.120 A 
ATOM     34  C   UNL     1      -6.582   9.668  21.577  0.00  0.00    +0.137 A 
ATOM     35  N   UNL     1      -6.534   8.833  20.501  0.00  0.00    -0.242 N 
ATOM     36  N   UNL     1      -6.370   9.520  19.356  0.00  0.00    -0.065 NA
BRANCH  35  37
ATOM     37  C   UNL     1      -6.741   7.406  20.468  0.00  0.00    +0.240 C 
BRANCH  37  38
ATOM     38  C   UNL     1      -5.966   6.763  19.341  0.00  0.00    +0.235 C 
ATOM     39  O   UNL     1      -4.928   6.129  19.527  0.00  0.00    -0.274 OA
ATOM     40  N   UNL     1      -6.535   6.888  18.087  0.00  0.00    -0.311 N 
ATOM     41  H   UNL     1      -7.217   7.627  17.934  0.00  0.00    +0.149 HD
BRANCH  40  42
ATOM     42  C   UNL     1      -5.843   6.385  16.908  0.00  0.00    +0.137 C 
BRANCH  42  43
ATOM     43  C   UNL     1      -5.291   7.537  16.056  0.00  0.00    +0.151 C 
BRANCH  43  44
ATOM     44  O   UNL     1      -6.092   8.703  16.286  0.00  0.00    -0.388 OA
ATOM     45  H   UNL     1      -7.036   8.447  16.271  0.00  0.00    +0.210 HD
ENDBRANCH  43  44
BRANCH  43  46
ATOM     46  C   UNL     1      -3.812   7.808  16.358  0.00  0.00    +0.162 C 
BRANCH  46  47
ATOM     47  N   UNL     1      -3.042   8.095  15.156  0.00  0.00    -0.269 N 
ATOM     48  C   UNL     1      -2.432   7.116  14.403  0.00  0.00    +0.113 A 
ATOM     49  C   UNL     1      -1.776   7.775  13.392  0.00  0.00    +0.137 A 
ATOM     50  N   UNL     1      -1.959   9.130  13.500  0.00  0.00    -0.172 NA
ATOM     51  C   UNL     1      -2.733   9.294  14.561  0.00  0.00    +0.450 A 
ATOM     52  N   UNL     1      -3.166  10.597  15.006  0.00  0.00    +0.120 N 
ATOM     53  O   UNL     1      -3.976  10.646  15.942  0.00  0.00    +0.045 OA
ATOM     54  O   UNL     1      -2.689  11.581  14.427  0.00  0.00    -0.573 OA
ENDBRANCH  46  47
ENDBRANCH  43  46
ENDBRANCH  42  43
ENDBRANCH  40  42
ENDBRANCH  37  38
ENDBRANCH  35  37
ENDBRANCH  31  33
ENDBRANCH  30  31
ENDBRANCH   1  30
TORSDOF 20
