REMARK VINA RESULT:    -2.947      1.712      2.317
REMARK INTER + INTRA:         -10.329
REMARK INTER:                  -7.476
REMARK INTRA:                  -2.852
REMARK UNBOUND:                -4.711
REMARK  Name = lig_assembled_62.pdb
REMARK  20 active torsions:
REMARK  status: ('A' for Active; 'I' for Inactive)
REMARK    1  A    between atoms: _2  and  _10
REMARK    2  A    between atoms: _5  and  _19
REMARK    3  A    between atoms: _6  and  _10
REMARK    4  A    between atoms: _7  and  _8
REMARK    5  A    between atoms: _7  and  _19
REMARK    6  A    between atoms: _10  and  _11
REMARK    7  A    between atoms: _11  and  _14
REMARK    8  A    between atoms: _12  and  _14
REMARK    9  A    between atoms: _15  and  _35
REMARK   10  A    between atoms: _17  and  _23
REMARK   11  A    between atoms: _18  and  _22
REMARK   12  A    between atoms: _22  and  _23
REMARK   13  A    between atoms: _25  and  _26
REMARK   14  A    between atoms: _27  and  _28
REMARK   15  A    between atoms: _29  and  _31
REMARK   16  A    between atoms: _31  and  _32
REMARK   17  A    between atoms: _31  and  _33
REMARK   18  A    between atoms: _33  and  _34
REMARK   19  A    between atoms: _33  and  _35
REMARK   20  A    between atoms: _36  and  _38
REMARK                            x       y       z     vdW  Elec       q    Type
REMARK                         _______ _______ _______ _____ _____    ______ ____
ROOT
ATOM      1  C   UNL     1      -4.982   8.236  22.618  0.00  0.00    +0.163 C 
ENDROOT
BRANCH   1   2
ATOM      2  O   UNL     1      -4.988   7.604  21.328  0.00  0.00    -0.388 OA
ATOM      3  H   UNL     1      -5.475   6.778  21.378  0.00  0.00    +0.210 HD
ENDBRANCH   1   2
BRANCH   1   4
ATOM      4  C   UNL     1      -5.744   9.572  22.580  0.00  0.00    +0.175 C 
BRANCH   4   5
ATOM      5  C   UNL     1      -4.910  10.730  23.147  0.00  0.00    +0.176 C 
ATOM      6  O   UNL     1      -5.177  10.816  24.574  0.00  0.00    -0.332 OA
ATOM      7  C   UNL     1      -4.382  11.806  25.309  0.00  0.00    +0.277 C 
ATOM      8  C   UNL     1      -4.530  13.205  24.663  0.00  0.00    +0.110 C 
ATOM      9  C   UNL     1      -4.287  13.158  23.140  0.00  0.00    +0.143 C 
ATOM     10  C   UNL     1      -5.161  12.094  22.477  0.00  0.00    +0.133 C 
BRANCH  10  11
ATOM     11  N   UNL     1      -4.858  11.998  21.041  0.00  0.00    -0.308 N 
ATOM     12  H   UNL     1      -3.934  11.691  20.773  0.00  0.00    +0.149 HD
ATOM     13  C   UNL     1      -5.724  12.293  20.067  0.00  0.00    +0.210 C 
ATOM     14  C   UNL     1      -7.116  12.784  20.508  0.00  0.00    +0.109 C 
ATOM     15  O   UNL     1      -5.447  12.189  18.872  0.00  0.00    -0.276 OA
ENDBRANCH  10  11
BRANCH   7  16
ATOM     16  C   UNL     1      -2.893  11.403  25.332  0.00  0.00    +0.414 C 
ATOM     17  O   UNL     1      -2.018  12.266  25.382  0.00  0.00    -0.240 OA
ATOM     18  O   UNL     1      -2.567  10.216  25.302  0.00  0.00    -0.240 OA
ENDBRANCH   7  16
BRANCH   7  19
ATOM     19  O   UNL     1      -4.892  11.872  26.666  0.00  0.00    -0.343 OA
ATOM     20  C   UNL     1      -6.235  12.405  26.790  0.00  0.00    +0.198 C 
ENDBRANCH   7  19
BRANCH   9  21
ATOM     21  O   UNL     1      -4.580  14.433  22.566  0.00  0.00    -0.390 OA
ATOM     22  H   UNL     1      -5.093  14.312  21.763  0.00  0.00    +0.210 HD
ENDBRANCH   9  21
ENDBRANCH   4   5
BRANCH   4  23
ATOM     23  O   UNL     1      -6.987   9.455  23.301  0.00  0.00    -0.387 OA
ATOM     24  H   UNL     1      -7.053  10.166  23.943  0.00  0.00    +0.210 HD
ENDBRANCH   4  23
ENDBRANCH   1   4
BRANCH   1  25
ATOM     25  C   UNL     1      -5.619   7.315  23.654  0.00  0.00    +0.141 C 
BRANCH  25  28
ATOM     26  C   UNL     1      -3.980   7.165  25.496  0.00  0.00    +0.401 C 
ATOM     27  O   UNL     1      -3.190   6.461  24.862  0.00  0.00    -0.226 OA
ATOM     28  N   UNL     1      -5.142   7.605  25.012  0.00  0.00    -0.279 N 
ATOM     29  H   UNL     1      -5.726   8.169  25.612  0.00  0.00    +0.152 HD
BRANCH  26  30
ATOM     30  O   UNL     1      -3.653   7.542  26.837  0.00  0.00    -0.444 OA
BRANCH  30  31
ATOM     31  C   UNL     1      -4.730   8.297  27.397  0.00  0.00    +0.292 C 
BRANCH  31  33
ATOM     32  N   UNL     1      -2.926   9.494  28.599  0.00  0.00    -0.131 NA
ATOM     33  C   UNL     1      -4.245   9.137  28.508  0.00  0.00    +0.120 A 
ATOM     34  C   UNL     1      -4.932   9.683  29.569  0.00  0.00    +0.138 A 
ATOM     35  N   UNL     1      -3.975  10.348  30.280  0.00  0.00    -0.237 N 
ATOM     36  N   UNL     1      -2.771  10.238  29.686  0.00  0.00    -0.065 NA
BRANCH  35  37
ATOM     37  C   UNL     1      -4.104  11.136  31.494  0.00  0.00    +0.219 C 
BRANCH  37  38
ATOM     38  C   UNL     1      -2.989  12.166  31.576  0.00  0.00    +0.237 C 
ATOM     39  O   UNL     1      -2.069  12.127  32.389  0.00  0.00    -0.274 OA
ATOM     40  N   UNL     1      -3.011  13.152  30.626  0.00  0.00    -0.328 N 
ATOM     41  H   UNL     1      -3.685  13.193  29.873  0.00  0.00    +0.145 HD
ATOM     42  H   UNL     1      -2.275  13.847  30.652  0.00  0.00    +0.145 HD
ENDBRANCH  37  38
BRANCH  37  43
ATOM     43  C   UNL     1      -4.105  10.233  32.726  0.00  0.00    +0.195 C 
BRANCH  43  44
ATOM     44  O   UNL     1      -3.163   9.169  32.536  0.00  0.00    -0.380 OA
ATOM     45  C   UNL     1      -3.747   7.897  32.788  0.00  0.00    +0.194 C 
ENDBRANCH  43  44
ENDBRANCH  37  43
ENDBRANCH  35  37
ENDBRANCH  31  33
ENDBRANCH  30  31
ENDBRANCH  26  30
ENDBRANCH  25  28
ENDBRANCH   1  25
TORSDOF 17
