REMARK VINA RESULT:    -4.367      1.780      2.216
REMARK INTER + INTRA:         -11.599
REMARK INTER:                  -8.721
REMARK INTRA:                  -2.878
REMARK UNBOUND:                -3.657
REMARK  Name = lig_assembled_88.pdb
REMARK  18 active torsions:
REMARK  status: ('A' for Active; 'I' for Inactive)
REMARK    1  A    between atoms: _2  and  _9
REMARK    2  A    between atoms: _4  and  _20
REMARK    3  A    between atoms: _5  and  _15
REMARK    4  A    between atoms: _6  and  _7
REMARK    5  A    between atoms: _6  and  _20
REMARK    6  A    between atoms: _9  and  _10
REMARK    7  A    between atoms: _16  and  _36
REMARK    8  A    between atoms: _18  and  _24
REMARK    9  A    between atoms: _19  and  _23
REMARK   10  A    between atoms: _23  and  _24
REMARK   11  A    between atoms: _26  and  _27
REMARK   12  A    between atoms: _28  and  _29
REMARK   13  A    between atoms: _30  and  _32
REMARK   14  A    between atoms: _32  and  _33
REMARK   15  A    between atoms: _32  and  _34
REMARK   16  A    between atoms: _34  and  _35
REMARK   17  A    between atoms: _34  and  _36
REMARK   18  A    between atoms: _37  and  _39
REMARK                            x       y       z     vdW  Elec       q    Type
REMARK                         _______ _______ _______ _____ _____    ______ ____
ROOT
ATOM      1  C   UNL     1      -4.341  10.725  25.296  0.00  0.00    +0.163 C 
ENDROOT
BRANCH   1   2
ATOM      2  O   UNL     1      -4.881  10.206  24.070  0.00  0.00    -0.388 OA
ATOM      3  H   UNL     1      -4.473   9.359  23.873  0.00  0.00    +0.210 HD
ENDBRANCH   1   2
BRANCH   1   4
ATOM      4  C   UNL     1      -2.903  10.225  25.519  0.00  0.00    +0.175 C 
BRANCH   4   5
ATOM      5  C   UNL     1      -2.862   8.941  26.361  0.00  0.00    +0.176 C 
ATOM      6  O   UNL     1      -3.315   7.842  25.524  0.00  0.00    -0.332 OA
ATOM      7  C   UNL     1      -3.243   6.510  26.132  0.00  0.00    +0.277 C 
ATOM      8  C   UNL     1      -4.004   6.489  27.480  0.00  0.00    +0.110 C 
ATOM      9  C   UNL     1      -3.578   7.658  28.393  0.00  0.00    +0.143 C 
ATOM     10  C   UNL     1      -3.689   8.995  27.659  0.00  0.00    +0.133 C 
BRANCH  10  11
ATOM     11  N   UNL     1      -3.199  10.091  28.509  0.00  0.00    -0.308 N 
ATOM     12  H   UNL     1      -2.208  10.133  28.700  0.00  0.00    +0.149 HD
ATOM     13  C   UNL     1      -3.978  11.035  29.044  0.00  0.00    +0.210 C 
ATOM     14  C   UNL     1      -5.487  10.929  28.756  0.00  0.00    +0.109 C 
ATOM     15  O   UNL     1      -3.537  11.950  29.740  0.00  0.00    -0.276 OA
ENDBRANCH  10  11
BRANCH   7  16
ATOM     16  C   UNL     1      -1.775   6.092  26.361  0.00  0.00    +0.414 C 
ATOM     17  O   UNL     1      -1.422   5.642  27.450  0.00  0.00    -0.240 OA
ATOM     18  O   UNL     1      -0.946   6.205  25.457  0.00  0.00    -0.240 OA
ENDBRANCH   7  16
BRANCH   7  19
ATOM     19  O   UNL     1      -3.883   5.570  25.230  0.00  0.00    -0.343 OA
ATOM     20  C   UNL     1      -4.299   6.128  23.958  0.00  0.00    +0.198 C 
ENDBRANCH   7  19
BRANCH   9  21
ATOM     21  O   UNL     1      -4.407   7.689  29.555  0.00  0.00    -0.390 OA
ATOM     22  H   UNL     1      -5.316   7.508  29.305  0.00  0.00    +0.210 HD
ENDBRANCH   9  21
ENDBRANCH   4   5
BRANCH   4  23
ATOM     23  O   UNL     1      -2.110  11.254  26.143  0.00  0.00    -0.387 OA
ATOM     24  H   UNL     1      -1.204  10.948  26.236  0.00  0.00    +0.210 HD
ENDBRANCH   4  23
ENDBRANCH   1   4
BRANCH   1  25
ATOM     25  C   UNL     1      -4.350  12.250  25.266  0.00  0.00    +0.141 C 
BRANCH  25  28
ATOM     26  C   UNL     1      -4.400  13.540  23.160  0.00  0.00    +0.401 C 
ATOM     27  O   UNL     1      -5.581  13.875  23.283  0.00  0.00    -0.226 OA
ATOM     28  N   UNL     1      -3.747  12.777  24.036  0.00  0.00    -0.279 N 
ATOM     29  H   UNL     1      -2.782  12.548  23.843  0.00  0.00    +0.152 HD
BRANCH  26  30
ATOM     30  O   UNL     1      -3.669  13.983  22.013  0.00  0.00    -0.444 OA
BRANCH  30  31
ATOM     31  C   UNL     1      -2.869  12.908  21.513  0.00  0.00    +0.292 C 
BRANCH  31  33
ATOM     32  N   UNL     1      -3.748  10.607  21.266  0.00  0.00    -0.131 NA
ATOM     33  C   UNL     1      -3.714  11.907  20.835  0.00  0.00    +0.120 A 
ATOM     34  C   UNL     1      -4.539  12.041  19.740  0.00  0.00    +0.137 A 
ATOM     35  N   UNL     1      -4.984  10.772  19.510  0.00  0.00    -0.247 N 
ATOM     36  N   UNL     1      -4.548   9.923  20.459  0.00  0.00    -0.065 NA
BRANCH  35  37
ATOM     37  C   UNL     1      -5.761  10.284  18.381  0.00  0.00    +0.184 C 
BRANCH  37  38
ATOM     38  C   UNL     1      -4.907   9.917  17.183  0.00  0.00    +0.017 A 
ATOM     39  C   UNL     1      -4.505  10.866  16.223  0.00  0.00    +0.024 A 
ATOM     40  C   UNL     1      -3.718  10.492  15.130  0.00  0.00    +0.019 A 
ATOM     41 BR   UNL     1      -3.241  11.785  13.835  0.00  0.00    -0.050 Br
ATOM     42  C   UNL     1      -3.283   9.179  14.981  0.00  0.00    +0.034 A 
ATOM     43  C   UNL     1      -3.633   8.240  15.948  0.00  0.00    +0.061 A 
ATOM     44 BR   UNL     1      -3.007   6.460  15.760  0.00  0.00    -0.046 Br
ATOM     45  C   UNL     1      -4.432   8.606  17.039  0.00  0.00    +0.136 A 
BRANCH  45  46
ATOM     46  O   UNL     1      -4.768   7.693  18.004  0.00  0.00    -0.505 OA
ATOM     47  H   UNL     1      -4.387   6.834  17.741  0.00  0.00    +0.292 HD
ENDBRANCH  45  46
ENDBRANCH  37  38
ENDBRANCH  35  37
ENDBRANCH  31  33
ENDBRANCH  30  31
ENDBRANCH  26  30
ENDBRANCH  25  28
ENDBRANCH   1  25
TORSDOF 16
