REMARK VINA RESULT:    -5.021      1.557      2.182
REMARK INTER + INTRA:         -11.531
REMARK INTER:                  -8.835
REMARK INTRA:                  -2.696
REMARK UNBOUND:                -2.841
REMARK  Name = lig_assembled_86.pdb
REMARK  17 active torsions:
REMARK  status: ('A' for Active; 'I' for Inactive)
REMARK    1  A    between atoms: _2  and  _10
REMARK    2  A    between atoms: _3  and  _13
REMARK    3  A    between atoms: _5  and  _21
REMARK    4  A    between atoms: _7  and  _8
REMARK    5  A    between atoms: _7  and  _21
REMARK    6  A    between atoms: _17  and  _37
REMARK    7  A    between atoms: _19  and  _25
REMARK    8  A    between atoms: _20  and  _24
REMARK    9  A    between atoms: _24  and  _25
REMARK   10  A    between atoms: _27  and  _28
REMARK   11  A    between atoms: _29  and  _30
REMARK   12  A    between atoms: _31  and  _33
REMARK   13  A    between atoms: _33  and  _34
REMARK   14  A    between atoms: _33  and  _35
REMARK   15  A    between atoms: _35  and  _36
REMARK   16  A    between atoms: _35  and  _37
REMARK   17  A    between atoms: _38  and  _40
REMARK                            x       y       z     vdW  Elec       q    Type
REMARK                         _______ _______ _______ _____ _____    ______ ____
ROOT
ATOM      1  C   UNL     1      -2.890   9.180  14.092  0.00  0.00    +0.163 C 
ENDROOT
BRANCH   1   2
ATOM      2  O   UNL     1      -1.539   9.022  13.630  0.00  0.00    -0.388 OA
ATOM      3  H   UNL     1      -1.533   8.492  12.830  0.00  0.00    +0.210 HD
ENDBRANCH   1   2
BRANCH   1   4
ATOM      4  C   UNL     1      -3.429   7.844  14.593  0.00  0.00    +0.141 C 
BRANCH   4   7
ATOM      5  C   UNL     1      -4.734   8.138  16.671  0.00  0.00    +0.401 C 
ATOM      6  O   UNL     1      -5.767   8.473  16.086  0.00  0.00    -0.226 OA
ATOM      7  N   UNL     1      -3.593   7.832  16.052  0.00  0.00    -0.279 N 
ATOM      8  H   UNL     1      -2.796   7.578  16.619  0.00  0.00    +0.152 HD
BRANCH   5   9
ATOM      9  O   UNL     1      -4.736   8.071  18.099  0.00  0.00    -0.444 OA
BRANCH   9  10
ATOM     10  C   UNL     1      -5.920   8.692  18.606  0.00  0.00    +0.292 C 
BRANCH  10  12
ATOM     11  N   UNL     1      -4.740   9.435  20.656  0.00  0.00    -0.131 NA
ATOM     12  C   UNL     1      -5.568   9.721  19.603  0.00  0.00    +0.120 A 
ATOM     13  C   UNL     1      -5.942  11.042  19.675  0.00  0.00    +0.137 A 
ATOM     14  N   UNL     1      -5.281  11.514  20.768  0.00  0.00    -0.248 N 
ATOM     15  N   UNL     1      -4.584  10.539  21.376  0.00  0.00    -0.065 NA
BRANCH  14  16
ATOM     16  C   UNL     1      -5.272  12.880  21.271  0.00  0.00    +0.112 C 
ATOM     17  C   UNL     1      -6.310  13.085  22.393  0.00  0.00    +0.045 C 
ATOM     18  C   UNL     1      -5.785  13.837  23.620  0.00  0.00    +0.059 C 
ATOM     19  C   UNL     1      -4.912  12.930  24.493  0.00  0.00    +0.020 C 
ATOM     20  C   UNL     1      -3.486  13.191  24.012  0.00  0.00    +0.020 C 
ATOM     21  C   UNL     1      -3.648  14.166  22.844  0.00  0.00    +0.059 C 
ATOM     22  N   UNL     1      -4.840  14.898  23.271  0.00  0.00    -0.299 NA
ATOM     23  C   UNL     1      -5.318  15.932  22.374  0.00  0.00    +0.105 C 
ATOM     24  C   UNL     1      -3.844  13.419  21.517  0.00  0.00    +0.045 C 
ENDBRANCH  14  16
ENDBRANCH  10  12
ENDBRANCH   9  10
ENDBRANCH   5   9
ENDBRANCH   4   7
ENDBRANCH   1   4
BRANCH   1  25
ATOM     25  C   UNL     1      -3.797   9.711  12.969  0.00  0.00    +0.175 C 
BRANCH  25  26
ATOM     26  C   UNL     1      -3.526  11.191  12.659  0.00  0.00    +0.176 C 
ATOM     27  O   UNL     1      -2.216  11.284  12.033  0.00  0.00    -0.332 OA
ATOM     28  C   UNL     1      -1.829  12.619  11.568  0.00  0.00    +0.277 C 
ATOM     29  C   UNL     1      -1.932  13.645  12.723  0.00  0.00    +0.110 C 
ATOM     30  C   UNL     1      -3.297  13.562  13.439  0.00  0.00    +0.143 C 
ATOM     31  C   UNL     1      -3.600  12.129  13.878  0.00  0.00    +0.133 C 
BRANCH  31  32
ATOM     32  N   UNL     1      -4.939  12.047  14.481  0.00  0.00    -0.308 N 
ATOM     33  H   UNL     1      -5.738  12.091  13.863  0.00  0.00    +0.149 HD
ATOM     34  C   UNL     1      -5.169  11.917  15.790  0.00  0.00    +0.210 C 
ATOM     35  C   UNL     1      -3.932  11.878  16.707  0.00  0.00    +0.109 C 
ATOM     36  O   UNL     1      -6.302  11.836  16.266  0.00  0.00    -0.276 OA
ENDBRANCH  31  32
BRANCH  28  37
ATOM     37  C   UNL     1      -2.725  13.071  10.396  0.00  0.00    +0.414 C 
ATOM     38  O   UNL     1      -3.037  12.275   9.511  0.00  0.00    -0.240 OA
ATOM     39  O   UNL     1      -3.136  14.230  10.336  0.00  0.00    -0.240 OA
ENDBRANCH  28  37
BRANCH  30  40
ATOM     40  O   UNL     1      -3.292  14.414  14.586  0.00  0.00    -0.390 OA
ATOM     41  H   UNL     1      -2.392  14.519  14.903  0.00  0.00    +0.210 HD
ENDBRANCH  30  40
BRANCH  28  42
ATOM     42  O   UNL     1      -0.447  12.559  11.131  0.00  0.00    -0.343 OA
ATOM     43  C   UNL     1       0.243  13.834  11.108  0.00  0.00    +0.198 C 
ENDBRANCH  28  42
ENDBRANCH  25  26
BRANCH  25  44
ATOM     44  O   UNL     1      -5.183   9.523  13.318  0.00  0.00    -0.387 OA
ATOM     45  H   UNL     1      -5.553   8.812  12.789  0.00  0.00    +0.210 HD
ENDBRANCH  25  44
ENDBRANCH   1  25
TORSDOF 14
