REMARK VINA RESULT:    -5.056      8.442     11.178
REMARK INTER + INTRA:         -11.740
REMARK INTER:                  -9.194
REMARK INTRA:                  -2.546
REMARK UNBOUND:                -2.989
REMARK  Name = lig_assembled_51.pdb
REMARK  16 active torsions:
REMARK  status: ('A' for Active; 'I' for Inactive)
REMARK    1  A    between atoms: _2  and  _9
REMARK    2  A    between atoms: _4  and  _22
REMARK    3  A    between atoms: _6  and  _7
REMARK    4  A    between atoms: _6  and  _22
REMARK    5  A    between atoms: _18  and  _38
REMARK    6  A    between atoms: _20  and  _26
REMARK    7  A    between atoms: _21  and  _25
REMARK    8  A    between atoms: _25  and  _26
REMARK    9  A    between atoms: _28  and  _29
REMARK   10  A    between atoms: _30  and  _31
REMARK   11  A    between atoms: _32  and  _34
REMARK   12  A    between atoms: _34  and  _35
REMARK   13  A    between atoms: _34  and  _36
REMARK   14  A    between atoms: _36  and  _37
REMARK   15  A    between atoms: _36  and  _38
REMARK   16  A    between atoms: _39  and  _41
REMARK                            x       y       z     vdW  Elec       q    Type
REMARK                         _______ _______ _______ _____ _____    ______ ____
ROOT
ATOM      1  C   UNL     1      -3.116  11.985  12.063  0.00  0.00    +0.163 C 
ENDROOT
BRANCH   1   2
ATOM      2  O   UNL     1      -1.895  11.326  12.439  0.00  0.00    -0.388 OA
ATOM      3  H   UNL     1      -1.200  11.979  12.550  0.00  0.00    +0.210 HD
ENDBRANCH   1   2
BRANCH   1   4
ATOM      4  C   UNL     1      -3.465  13.061  13.086  0.00  0.00    +0.141 C 
BRANCH   4   7
ATOM      5  C   UNL     1      -4.211  12.472  15.367  0.00  0.00    +0.401 C 
ATOM      6  O   UNL     1      -5.396  12.735  15.149  0.00  0.00    -0.226 OA
ATOM      7  N   UNL     1      -3.240  12.601  14.462  0.00  0.00    -0.279 N 
ATOM      8  H   UNL     1      -2.297  12.369  14.739  0.00  0.00    +0.152 HD
BRANCH   5   9
ATOM      9  O   UNL     1      -3.831  12.002  16.663  0.00  0.00    -0.444 OA
BRANCH   9  10
ATOM     10  C   UNL     1      -4.819  11.089  17.149  0.00  0.00    +0.292 C 
BRANCH  10  12
ATOM     11  N   UNL     1      -4.662   9.677  19.176  0.00  0.00    -0.131 NA
ATOM     12  C   UNL     1      -4.690  10.921  18.608  0.00  0.00    +0.120 A 
ATOM     13  C   UNL     1      -4.583  11.869  19.600  0.00  0.00    +0.137 A 
ATOM     14  N   UNL     1      -4.499  11.143  20.755  0.00  0.00    -0.245 N 
ATOM     15  N   UNL     1      -4.545   9.824  20.489  0.00  0.00    -0.065 NA
BRANCH  14  16
ATOM     16  C   UNL     1      -4.383  11.648  22.125  0.00  0.00    +0.066 C 
ATOM     17  C   UNL     1      -4.382  13.202  22.121  0.00  0.00    +0.034 C 
ATOM     18  C   UNL     1      -4.307  13.754  23.555  0.00  0.00    -0.008 C 
ATOM     19  C   UNL     1      -5.516  13.244  24.357  0.00  0.00    +0.007 C 
ATOM     20  C   UNL     1      -5.507  11.708  24.409  0.00  0.00    -0.008 C 
ATOM     21  C   UNL     1      -4.205  11.229  25.071  0.00  0.00    +0.007 C 
ATOM     22  C   UNL     1      -2.995  11.728  24.266  0.00  0.00    -0.008 C 
ATOM     23  C   UNL     1      -3.013  13.264  24.222  0.00  0.00    +0.007 C 
ATOM     24  C   UNL     1      -5.584  11.152  22.977  0.00  0.00    +0.034 C 
ATOM     25  C   UNL     1      -3.076  11.177  22.832  0.00  0.00    +0.034 C 
ENDBRANCH  14  16
ENDBRANCH  10  12
ENDBRANCH   9  10
ENDBRANCH   5   9
ENDBRANCH   4   7
ENDBRANCH   1   4
BRANCH   1  26
ATOM     26  C   UNL     1      -4.275  10.979  11.959  0.00  0.00    +0.175 C 
BRANCH  26  27
ATOM     27  C   UNL     1      -4.017   9.712  12.788  0.00  0.00    +0.176 C 
ATOM     28  O   UNL     1      -3.139   8.845  12.019  0.00  0.00    -0.332 OA
ATOM     29  C   UNL     1      -2.695   7.625  12.701  0.00  0.00    +0.277 C 
ATOM     30  C   UNL     1      -3.914   6.817  13.211  0.00  0.00    +0.110 C 
ATOM     31  C   UNL     1      -4.892   7.705  14.009  0.00  0.00    +0.143 C 
ATOM     32  C   UNL     1      -5.285   8.946  13.207  0.00  0.00    +0.133 C 
BRANCH  32  33
ATOM     33  N   UNL     1      -6.148   9.827  14.010  0.00  0.00    -0.308 N 
ATOM     34  H   UNL     1      -5.760  10.227  14.852  0.00  0.00    +0.149 HD
ATOM     35  C   UNL     1      -7.411  10.131  13.699  0.00  0.00    +0.210 C 
ATOM     36  C   UNL     1      -7.982   9.483  12.423  0.00  0.00    +0.109 C 
ATOM     37  O   UNL     1      -8.106  10.883  14.383  0.00  0.00    -0.276 OA
ENDBRANCH  32  33
BRANCH  29  38
ATOM     38  C   UNL     1      -1.771   7.968  13.887  0.00  0.00    +0.414 C 
ATOM     39  O   UNL     1      -0.937   8.867  13.784  0.00  0.00    -0.240 OA
ATOM     40  O   UNL     1      -1.858   7.346  14.947  0.00  0.00    -0.240 OA
ENDBRANCH  29  38
BRANCH  31  41
ATOM     41  O   UNL     1      -6.068   6.959  14.328  0.00  0.00    -0.390 OA
ATOM     42  H   UNL     1      -6.615   7.467  14.932  0.00  0.00    +0.210 HD
ENDBRANCH  31  41
BRANCH  29  43
ATOM     43  O   UNL     1      -1.976   6.810  11.740  0.00  0.00    -0.343 OA
ATOM     44  C   UNL     1      -2.766   5.777  11.100  0.00  0.00    +0.198 C 
ENDBRANCH  29  43
ENDBRANCH  26  27
BRANCH  26  45
ATOM     45  O   UNL     1      -4.508  10.630  10.580  0.00  0.00    -0.387 OA
ATOM     46  H   UNL     1      -5.185  11.205  10.214  0.00  0.00    +0.210 HD
ENDBRANCH  26  45
ENDBRANCH   1  26
TORSDOF 14
