REMARK VINA RESULT:    -3.943      4.534     11.856
REMARK INTER + INTRA:         -11.714
REMARK INTER:                  -8.860
REMARK INTRA:                  -2.854
REMARK UNBOUND:                -4.083
REMARK  Name = lig_assembled_83.pdb
REMARK  20 active torsions:
REMARK  status: ('A' for Active; 'I' for Inactive)
REMARK    1  A    between atoms: _2  and  _12
REMARK    2  A    between atoms: _3  and  _14
REMARK    3  A    between atoms: _7  and  _24
REMARK    4  A    between atoms: _9  and  _10
REMARK    5  A    between atoms: _9  and  _24
REMARK    6  A    between atoms: _12  and  _13
REMARK    7  A    between atoms: _13  and  _14
REMARK    8  A    between atoms: _13  and  _18
REMARK    9  A    between atoms: _20  and  _40
REMARK   10  A    between atoms: _22  and  _28
REMARK   11  A    between atoms: _23  and  _27
REMARK   12  A    between atoms: _27  and  _28
REMARK   13  A    between atoms: _30  and  _31
REMARK   14  A    between atoms: _32  and  _33
REMARK   15  A    between atoms: _34  and  _36
REMARK   16  A    between atoms: _36  and  _37
REMARK   17  A    between atoms: _36  and  _38
REMARK   18  A    between atoms: _38  and  _39
REMARK   19  A    between atoms: _38  and  _40
REMARK   20  A    between atoms: _41  and  _43
REMARK                            x       y       z     vdW  Elec       q    Type
REMARK                         _______ _______ _______ _____ _____    ______ ____
ROOT
ATOM      1  C   UNL     1      -4.447   7.782  24.890  0.00  0.00    +0.141 C 
ENDROOT
BRANCH   1   4
ATOM      2  C   UNL     1      -2.950   7.087  26.729  0.00  0.00    +0.401 C 
ATOM      3  O   UNL     1      -2.033   6.745  25.979  0.00  0.00    -0.226 OA
ATOM      4  N   UNL     1      -4.116   7.577  26.305  0.00  0.00    -0.279 N 
ATOM      5  H   UNL     1      -4.811   7.820  26.997  0.00  0.00    +0.152 HD
BRANCH   2   6
ATOM      6  O   UNL     1      -2.777   6.956  28.143  0.00  0.00    -0.444 OA
BRANCH   6   7
ATOM      7  C   UNL     1      -1.926   8.002  28.619  0.00  0.00    +0.292 C 
BRANCH   7   9
ATOM      8  N   UNL     1      -2.934   8.131  30.884  0.00  0.00    -0.131 NA
ATOM      9  C   UNL     1      -2.581   8.745  29.710  0.00  0.00    +0.120 A 
ATOM     10  C   UNL     1      -2.941  10.072  29.775  0.00  0.00    +0.137 A 
ATOM     11  N   UNL     1      -3.488  10.203  31.014  0.00  0.00    -0.249 N 
ATOM     12  N   UNL     1      -3.496   9.035  31.677  0.00  0.00    -0.065 NA
BRANCH  11  13
ATOM     13  C   UNL     1      -4.056  11.393  31.612  0.00  0.00    +0.178 C 
BRANCH  13  14
ATOM     14  C   UNL     1      -2.992  12.240  32.316  0.00  0.00    +0.156 C 
BRANCH  14  15
ATOM     15  O   UNL     1      -1.825  11.449  32.563  0.00  0.00    -0.388 OA
ATOM     16  H   UNL     1      -2.002  10.516  32.328  0.00  0.00    +0.210 HD
ENDBRANCH  14  15
BRANCH  14  17
ATOM     17  C   UNL     1      -2.634  13.469  31.466  0.00  0.00    +0.162 C 
BRANCH  17  18
ATOM     18  N   UNL     1      -3.566  14.570  31.654  0.00  0.00    -0.269 N 
ATOM     19  C   UNL     1      -4.677  14.765  30.865  0.00  0.00    +0.113 A 
ATOM     20  C   UNL     1      -5.304  15.876  31.379  0.00  0.00    +0.137 A 
ATOM     21  N   UNL     1      -4.602  16.384  32.437  0.00  0.00    -0.172 NA
ATOM     22  C   UNL     1      -3.566  15.580  32.586  0.00  0.00    +0.450 A 
ATOM     23  N   UNL     1      -2.577  15.772  33.623  0.00  0.00    +0.120 N 
ATOM     24  O   UNL     1      -1.640  14.959  33.683  0.00  0.00    +0.045 OA
ATOM     25  O   UNL     1      -2.721  16.742  34.376  0.00  0.00    -0.573 OA
ENDBRANCH  17  18
ENDBRANCH  14  17
ENDBRANCH  13  14
ENDBRANCH  11  13
ENDBRANCH   7   9
ENDBRANCH   6   7
ENDBRANCH   2   6
ENDBRANCH   1   4
BRANCH   1  26
ATOM     26  C   UNL     1      -5.894   8.225  24.703  0.00  0.00    +0.163 C 
BRANCH  26  27
ATOM     27  O   UNL     1      -6.396   8.794  25.923  0.00  0.00    -0.388 OA
ATOM     28  H   UNL     1      -7.155   9.348  25.730  0.00  0.00    +0.210 HD
ENDBRANCH  26  27
BRANCH  26  29
ATOM     29  C   UNL     1      -5.975   9.240  23.549  0.00  0.00    +0.175 C 
BRANCH  29  30
ATOM     30  C   UNL     1      -4.929  10.356  23.686  0.00  0.00    +0.176 C 
ATOM     31  O   UNL     1      -5.308  11.187  24.817  0.00  0.00    -0.332 OA
ATOM     32  C   UNL     1      -4.362  12.251  25.167  0.00  0.00    +0.277 C 
ATOM     33  C   UNL     1      -4.071  13.143  23.935  0.00  0.00    +0.110 C 
ATOM     34  C   UNL     1      -3.694  12.301  22.698  0.00  0.00    +0.143 C 
ATOM     35  C   UNL     1      -4.745  11.224  22.427  0.00  0.00    +0.133 C 
BRANCH  35  36
ATOM     36  N   UNL     1      -4.332  10.373  21.300  0.00  0.00    -0.308 N 
ATOM     37  H   UNL     1      -3.451   9.884  21.376  0.00  0.00    +0.149 HD
ATOM     38  C   UNL     1      -5.045  10.205  20.183  0.00  0.00    +0.210 C 
ATOM     39  C   UNL     1      -6.371  10.985  20.087  0.00  0.00    +0.109 C 
ATOM     40  O   UNL     1      -4.682   9.475  19.261  0.00  0.00    -0.276 OA
ENDBRANCH  35  36
BRANCH  32  41
ATOM     41  C   UNL     1      -3.041  11.655  25.696  0.00  0.00    +0.414 C 
ATOM     42  O   UNL     1      -1.969  12.207  25.449  0.00  0.00    -0.240 OA
ATOM     43  O   UNL     1      -3.046  10.623  26.368  0.00  0.00    -0.240 OA
ENDBRANCH  32  41
BRANCH  32  44
ATOM     44  O   UNL     1      -4.972  13.074  26.194  0.00  0.00    -0.343 OA
ATOM     45  C   UNL     1      -6.397  13.292  26.039  0.00  0.00    +0.198 C 
ENDBRANCH  32  44
BRANCH  34  46
ATOM     46  O   UNL     1      -3.583  13.149  21.554  0.00  0.00    -0.390 OA
ATOM     47  H   UNL     1      -2.841  12.865  21.016  0.00  0.00    +0.210 HD
ENDBRANCH  34  46
ENDBRANCH  29  30
BRANCH  29  48
ATOM     48  O   UNL     1      -7.299   9.805  23.478  0.00  0.00    -0.387 OA
ATOM     49  H   UNL     1      -7.419  10.432  24.196  0.00  0.00    +0.210 HD
ENDBRANCH  29  48
ENDBRANCH  26  29
ENDBRANCH   1  26
TORSDOF 18
