REMARK VINA RESULT:    -4.372      5.559     10.430
REMARK INTER + INTRA:         -12.127
REMARK INTER:                  -8.991
REMARK INTRA:                  -3.136
REMARK UNBOUND:                -3.793
REMARK  Name = lig_assembled_21.pdb
REMARK  20 active torsions:
REMARK  status: ('A' for Active; 'I' for Inactive)
REMARK    1  A    between atoms: _2  and  _9
REMARK    2  A    between atoms: _4  and  _23
REMARK    3  A    between atoms: _6  and  _7
REMARK    4  A    between atoms: _6  and  _23
REMARK    5  A    between atoms: _9  and  _10
REMARK    6  A    between atoms: _11  and  _18
REMARK    7  A    between atoms: _12  and  _13
REMARK    8  A    between atoms: _12  and  _18
REMARK    9  A    between atoms: _19  and  _39
REMARK   10  A    between atoms: _21  and  _27
REMARK   11  A    between atoms: _22  and  _26
REMARK   12  A    between atoms: _26  and  _27
REMARK   13  A    between atoms: _29  and  _30
REMARK   14  A    between atoms: _31  and  _32
REMARK   15  A    between atoms: _33  and  _35
REMARK   16  A    between atoms: _35  and  _36
REMARK   17  A    between atoms: _35  and  _37
REMARK   18  A    between atoms: _37  and  _38
REMARK   19  A    between atoms: _37  and  _39
REMARK   20  A    between atoms: _40  and  _42
REMARK                            x       y       z     vdW  Elec       q    Type
REMARK                         _______ _______ _______ _____ _____    ______ ____
ROOT
ATOM      1  C   UNL     1      -6.570   9.037  23.517  0.00  0.00    +0.163 C 
ENDROOT
BRANCH   1   2
ATOM      2  O   UNL     1      -7.192   8.999  24.812  0.00  0.00    -0.388 OA
ATOM      3  H   UNL     1      -6.975   9.799  25.296  0.00  0.00    +0.210 HD
ENDBRANCH   1   2
BRANCH   1   4
ATOM      4  C   UNL     1      -5.205   8.328  23.542  0.00  0.00    +0.175 C 
BRANCH   4   5
ATOM      5  C   UNL     1      -4.109   9.204  24.167  0.00  0.00    +0.176 C 
ATOM      6  O   UNL     1      -4.400   9.338  25.586  0.00  0.00    -0.332 OA
ATOM      7  C   UNL     1      -3.396  10.061  26.373  0.00  0.00    +0.277 C 
ATOM      8  C   UNL     1      -3.129  11.457  25.759  0.00  0.00    +0.110 C 
ATOM      9  C   UNL     1      -2.846  11.368  24.244  0.00  0.00    +0.143 C 
ATOM     10  C   UNL     1      -3.951  10.594  23.524  0.00  0.00    +0.133 C 
BRANCH  10  11
ATOM     11  N   UNL     1      -3.627  10.441  22.097  0.00  0.00    -0.308 N 
ATOM     12  H   UNL     1      -2.860   9.832  21.850  0.00  0.00    +0.149 HD
ATOM     13  C   UNL     1      -4.280  11.055  21.107  0.00  0.00    +0.210 C 
ATOM     14  C   UNL     1      -5.427  11.998  21.517  0.00  0.00    +0.109 C 
ATOM     15  O   UNL     1      -3.996  10.897  19.919  0.00  0.00    -0.276 OA
ENDBRANCH  10  11
BRANCH   7  16
ATOM     16  C   UNL     1      -2.076   9.265  26.438  0.00  0.00    +0.414 C 
ATOM     17  O   UNL     1      -0.997   9.855  26.472  0.00  0.00    -0.240 OA
ATOM     18  O   UNL     1      -2.090   8.033  26.457  0.00  0.00    -0.240 OA
ENDBRANCH   7  16
BRANCH   9  19
ATOM     19  O   UNL     1      -2.756  12.682  23.693  0.00  0.00    -0.390 OA
ATOM     20  H   UNL     1      -2.417  13.286  24.358  0.00  0.00    +0.210 HD
ENDBRANCH   9  19
BRANCH   7  21
ATOM     21  O   UNL     1      -3.923  10.244  27.712  0.00  0.00    -0.343 OA
ATOM     22  C   UNL     1      -4.982   9.327  28.084  0.00  0.00    +0.198 C 
ENDBRANCH   7  21
ENDBRANCH   4   5
BRANCH   4  23
ATOM     23  O   UNL     1      -4.825   7.935  22.208  0.00  0.00    -0.387 OA
ATOM     24  H   UNL     1      -4.002   8.368  21.968  0.00  0.00    +0.210 HD
ENDBRANCH   4  23
ENDBRANCH   1   4
BRANCH   1  25
ATOM     25  C   UNL     1      -7.472   8.369  22.485  0.00  0.00    +0.141 C 
BRANCH  25  28
ATOM     26  C   UNL     1      -7.262   9.078  20.127  0.00  0.00    +0.401 C 
ATOM     27  O   UNL     1      -6.503   8.156  19.820  0.00  0.00    -0.226 OA
ATOM     28  N   UNL     1      -7.758   9.258  21.352  0.00  0.00    -0.279 N 
ATOM     29  H   UNL     1      -8.366  10.050  21.509  0.00  0.00    +0.152 HD
BRANCH  26  30
ATOM     30  O   UNL     1      -7.643  10.027  19.127  0.00  0.00    -0.444 OA
BRANCH  30  31
ATOM     31  C   UNL     1      -7.264   9.540  17.837  0.00  0.00    +0.292 C 
BRANCH  31  33
ATOM     32  N   UNL     1      -6.291  11.783  17.476  0.00  0.00    -0.131 NA
ATOM     33  C   UNL     1      -6.268  10.438  17.225  0.00  0.00    +0.120 A 
ATOM     34  C   UNL     1      -5.205  10.154  16.397  0.00  0.00    +0.137 A 
ATOM     35  N   UNL     1      -4.565  11.355  16.255  0.00  0.00    -0.247 N 
ATOM     36  N   UNL     1      -5.247  12.334  16.876  0.00  0.00    -0.065 NA
BRANCH  35  37
ATOM     37  C   UNL     1      -3.275  11.567  15.606  0.00  0.00    +0.184 C 
BRANCH  37  38
ATOM     38  C   UNL     1      -3.331  12.108  14.197  0.00  0.00    +0.016 A 
ATOM     39  C   UNL     1      -2.834  11.380  13.101  0.00  0.00    +0.137 A 
ATOM     40  C   UNL     1      -2.898  11.897  11.806  0.00  0.00    +0.047 A 
ATOM     41  C   UNL     1      -3.479  13.146  11.588  0.00  0.00    +0.004 A 
ATOM     42  C   UNL     1      -3.964  13.889  12.663  0.00  0.00    +0.001 A 
ATOM     43  C   UNL     1      -3.894  13.373  13.958  0.00  0.00    +0.009 A 
BRANCH  39  44
ATOM     44  O   UNL     1      -2.195  10.151  13.387  0.00  0.00    -0.426 OA
BRANCH  44  45
ATOM     45  C   UNL     1      -2.634   8.935  12.859  0.00  0.00    +0.309 C 
ATOM     46  O   UNL     1      -1.952   8.071  12.324  0.00  0.00    -0.251 OA
ATOM     47  C   UNL     1      -4.106   8.797  13.114  0.00  0.00    +0.136 C 
ENDBRANCH  44  45
ENDBRANCH  39  44
ENDBRANCH  37  38
ENDBRANCH  35  37
ENDBRANCH  31  33
ENDBRANCH  30  31
ENDBRANCH  26  30
ENDBRANCH  25  28
ENDBRANCH   1  25
TORSDOF 17
