REMARK VINA RESULT:    -4.805      2.659      7.466
REMARK INTER + INTRA:         -10.822
REMARK INTER:                  -6.961
REMARK INTRA:                  -3.861
REMARK UNBOUND:                -2.505
REMARK  Name = lig_assembled_3.pdb
REMARK  16 active torsions:
REMARK  status: ('A' for Active; 'I' for Inactive)
REMARK    1  A    between atoms: _2  and  _9
REMARK    2  A    between atoms: _4  and  _18
REMARK    3  A    between atoms: _6  and  _7
REMARK    4  A    between atoms: _6  and  _18
REMARK    5  A    between atoms: _14  and  _34
REMARK    6  A    between atoms: _16  and  _22
REMARK    7  A    between atoms: _17  and  _21
REMARK    8  A    between atoms: _21  and  _22
REMARK    9  A    between atoms: _24  and  _25
REMARK   10  A    between atoms: _26  and  _27
REMARK   11  A    between atoms: _28  and  _30
REMARK   12  A    between atoms: _30  and  _31
REMARK   13  A    between atoms: _30  and  _32
REMARK   14  A    between atoms: _32  and  _33
REMARK   15  A    between atoms: _32  and  _34
REMARK   16  A    between atoms: _35  and  _37
REMARK                            x       y       z     vdW  Elec       q    Type
REMARK                         _______ _______ _______ _____ _____    ______ ____
ROOT
ATOM      1  C   UNL     1      -3.091  11.715  25.271  0.00  0.00    +0.163 C 
ENDROOT
BRANCH   1   2
ATOM      2  O   UNL     1      -2.007  10.772  25.315  0.00  0.00    -0.388 OA
ATOM      3  H   UNL     1      -1.766  10.604  26.229  0.00  0.00    +0.210 HD
ENDBRANCH   1   2
BRANCH   1   4
ATOM      4  C   UNL     1      -2.715  12.901  24.388  0.00  0.00    +0.141 C 
BRANCH   4   7
ATOM      5  C   UNL     1      -4.209  13.105  22.431  0.00  0.00    +0.401 C 
ATOM      6  O   UNL     1      -3.568  12.310  21.740  0.00  0.00    -0.226 OA
ATOM      7  N   UNL     1      -3.879  13.444  23.677  0.00  0.00    -0.279 N 
ATOM      8  H   UNL     1      -4.462  14.113  24.160  0.00  0.00    +0.152 HD
BRANCH   5   9
ATOM      9  O   UNL     1      -5.379  13.716  21.881  0.00  0.00    -0.444 OA
BRANCH   9  10
ATOM     10  C   UNL     1      -6.434  12.753  21.812  0.00  0.00    +0.292 C 
BRANCH  10  12
ATOM     11  N   UNL     1      -6.995  13.006  24.208  0.00  0.00    -0.131 NA
ATOM     12  C   UNL     1      -6.706  12.194  23.150  0.00  0.00    +0.121 A 
ATOM     13  C   UNL     1      -6.733  10.883  23.567  0.00  0.00    +0.143 A 
ATOM     14  N   UNL     1      -7.074  10.939  24.900  0.00  0.00    -0.220 N 
ATOM     15  N   UNL     1      -7.212  12.238  25.268  0.00  0.00    -0.060 NA
BRANCH  14  16
ATOM     16  C   UNL     1      -7.288   9.871  25.808  0.00  0.00    +0.067 A 
ATOM     17  C   UNL     1      -7.211  10.078  27.193  0.00  0.00    +0.028 A 
ATOM     18  C   UNL     1      -7.396   9.006  28.071  0.00  0.00    +0.002 A 
ATOM     19  C   UNL     1      -7.659   7.731  27.576  0.00  0.00    +0.000 A 
ATOM     20  C   UNL     1      -7.746   7.521  26.201  0.00  0.00    +0.002 A 
ATOM     21  C   UNL     1      -7.563   8.587  25.316  0.00  0.00    +0.028 A 
ENDBRANCH  14  16
ENDBRANCH  10  12
ENDBRANCH   9  10
ENDBRANCH   5   9
ENDBRANCH   4   7
ENDBRANCH   1   4
BRANCH   1  22
ATOM     22  C   UNL     1      -3.441  12.217  26.683  0.00  0.00    +0.175 C 
BRANCH  22  23
ATOM     23  C   UNL     1      -3.234  11.132  27.750  0.00  0.00    +0.176 C 
ATOM     24  O   UNL     1      -3.697   9.868  27.198  0.00  0.00    -0.332 OA
ATOM     25  C   UNL     1      -3.479   8.690  28.042  0.00  0.00    +0.277 C 
ATOM     26  C   UNL     1      -4.099   8.907  29.444  0.00  0.00    +0.110 C 
ATOM     27  C   UNL     1      -3.661  10.253  30.059  0.00  0.00    +0.143 C 
ATOM     28  C   UNL     1      -3.930  11.410  29.095  0.00  0.00    +0.133 C 
BRANCH  28  29
ATOM     29  N   UNL     1      -3.429  12.675  29.655  0.00  0.00    -0.308 N 
ATOM     30  H   UNL     1      -2.429  12.804  29.706  0.00  0.00    +0.149 HD
ATOM     31  C   UNL     1      -4.211  13.662  30.101  0.00  0.00    +0.210 C 
ATOM     32  C   UNL     1      -5.731  13.423  30.034  0.00  0.00    +0.109 C 
ATOM     33  O   UNL     1      -3.763  14.717  30.552  0.00  0.00    -0.276 OA
ENDBRANCH  28  29
BRANCH  25  34
ATOM     34  C   UNL     1      -1.972   8.391  28.186  0.00  0.00    +0.414 C 
ATOM     35  O   UNL     1      -1.148   9.035  27.538  0.00  0.00    -0.240 OA
ATOM     36  O   UNL     1      -1.582   7.506  28.948  0.00  0.00    -0.240 OA
ENDBRANCH  25  34
BRANCH  27  37
ATOM     37  O   UNL     1      -4.371  10.481  31.277  0.00  0.00    -0.390 OA
ATOM     38  H   UNL     1      -3.876  10.109  32.011  0.00  0.00    +0.210 HD
ENDBRANCH  27  37
BRANCH  25  39
ATOM     39  O   UNL     1      -4.144   7.561  27.418  0.00  0.00    -0.343 OA
ATOM     40  C   UNL     1      -4.029   7.505  25.974  0.00  0.00    +0.198 C 
ENDBRANCH  25  39
ENDBRANCH  22  23
BRANCH  22  41
ATOM     41  O   UNL     1      -4.801  12.694  26.717  0.00  0.00    -0.387 OA
ATOM     42  H   UNL     1      -4.900  13.422  26.099  0.00  0.00    +0.210 HD
ENDBRANCH  22  41
ENDBRANCH   1  22
TORSDOF 14
