REMARK VINA RESULT:    -4.101      2.992      9.232
REMARK INTER + INTRA:         -11.557
REMARK INTER:                  -9.241
REMARK INTRA:                  -2.316
REMARK UNBOUND:                -3.979
REMARK  Name = lig_assembled_24.pdb
REMARK  19 active torsions:
REMARK  status: ('A' for Active; 'I' for Inactive)
REMARK    1  A    between atoms: _2  and  _9
REMARK    2  A    between atoms: _4  and  _21
REMARK    3  A    between atoms: _6  and  _7
REMARK    4  A    between atoms: _6  and  _21
REMARK    5  A    between atoms: _9  and  _10
REMARK    6  A    between atoms: _13  and  _16
REMARK    7  A    between atoms: _14  and  _16
REMARK    8  A    between atoms: _17  and  _37
REMARK    9  A    between atoms: _19  and  _25
REMARK   10  A    between atoms: _20  and  _24
REMARK   11  A    between atoms: _24  and  _25
REMARK   12  A    between atoms: _27  and  _28
REMARK   13  A    between atoms: _29  and  _30
REMARK   14  A    between atoms: _31  and  _33
REMARK   15  A    between atoms: _33  and  _34
REMARK   16  A    between atoms: _33  and  _35
REMARK   17  A    between atoms: _35  and  _36
REMARK   18  A    between atoms: _35  and  _37
REMARK   19  A    between atoms: _38  and  _40
REMARK                            x       y       z     vdW  Elec       q    Type
REMARK                         _______ _______ _______ _____ _____    ______ ____
ROOT
ATOM      1  C   UNL     1      -5.740  13.136  26.814  0.00  0.00    +0.163 C 
ENDROOT
BRANCH   1   2
ATOM      2  O   UNL     1      -6.568  14.178  27.355  0.00  0.00    -0.388 OA
ATOM      3  H   UNL     1      -6.783  14.809  26.663  0.00  0.00    +0.210 HD
ENDBRANCH   1   2
BRANCH   1   4
ATOM      4  C   UNL     1      -5.914  11.829  27.607  0.00  0.00    +0.175 C 
BRANCH   4   5
ATOM      5  C   UNL     1      -4.579  11.097  27.814  0.00  0.00    +0.176 C 
ATOM      6  O   UNL     1      -4.465  10.076  26.785  0.00  0.00    -0.332 OA
ATOM      7  C   UNL     1      -3.197   9.340  26.761  0.00  0.00    +0.277 C 
ATOM      8  C   UNL     1      -2.904   8.720  28.149  0.00  0.00    +0.110 C 
ATOM      9  C   UNL     1      -3.045   9.761  29.279  0.00  0.00    +0.143 C 
ATOM     10  C   UNL     1      -4.399  10.468  29.208  0.00  0.00    +0.133 C 
BRANCH  10  11
ATOM     11  N   UNL     1      -4.487  11.518  30.236  0.00  0.00    -0.308 N 
ATOM     12  H   UNL     1      -3.851  12.300  30.166  0.00  0.00    +0.149 HD
ATOM     13  C   UNL     1      -5.351  11.504  31.254  0.00  0.00    +0.210 C 
ATOM     14  C   UNL     1      -6.289  10.285  31.346  0.00  0.00    +0.109 C 
ATOM     15  O   UNL     1      -5.412  12.404  32.092  0.00  0.00    -0.276 OA
ENDBRANCH  10  11
BRANCH   7  16
ATOM     16  C   UNL     1      -2.033  10.269  26.356  0.00  0.00    +0.414 C 
ATOM     17  O   UNL     1      -0.868   9.892  26.476  0.00  0.00    -0.240 OA
ATOM     18  O   UNL     1      -2.259  11.394  25.909  0.00  0.00    -0.240 OA
ENDBRANCH   7  16
BRANCH   7  19
ATOM     19  O   UNL     1      -3.321   8.264  25.796  0.00  0.00    -0.343 OA
ATOM     20  C   UNL     1      -2.808   6.982  26.239  0.00  0.00    +0.198 C 
ENDBRANCH   7  19
BRANCH   9  21
ATOM     21  O   UNL     1      -2.917   9.116  30.547  0.00  0.00    -0.390 OA
ATOM     22  H   UNL     1      -2.318   8.370  30.468  0.00  0.00    +0.210 HD
ENDBRANCH   9  21
ENDBRANCH   4   5
BRANCH   4  23
ATOM     23  O   UNL     1      -6.856  10.965  26.940  0.00  0.00    -0.387 OA
ATOM     24  H   UNL     1      -7.334  11.465  26.275  0.00  0.00    +0.210 HD
ENDBRANCH   4  23
ENDBRANCH   1   4
BRANCH   1  25
ATOM     25  C   UNL     1      -6.095  12.894  25.350  0.00  0.00    +0.141 C 
BRANCH  25  28
ATOM     26  C   UNL     1      -4.468  12.785  23.494  0.00  0.00    +0.401 C 
ATOM     27  O   UNL     1      -4.870  13.819  22.956  0.00  0.00    -0.226 OA
ATOM     28  N   UNL     1      -4.986  12.277  24.613  0.00  0.00    -0.279 N 
ATOM     29  H   UNL     1      -4.594  11.418  24.973  0.00  0.00    +0.152 HD
BRANCH  26  30
ATOM     30  O   UNL     1      -3.383  12.069  22.899  0.00  0.00    -0.444 OA
BRANCH  30  31
ATOM     31  C   UNL     1      -3.680  10.670  22.891  0.00  0.00    +0.292 C 
BRANCH  31  33
ATOM     32  N   UNL     1      -4.637   8.984  21.352  0.00  0.00    -0.131 NA
ATOM     33  C   UNL     1      -4.209  10.265  21.575  0.00  0.00    +0.120 A 
ATOM     34  C   UNL     1      -4.386  11.006  20.428  0.00  0.00    +0.137 A 
ATOM     35  N   UNL     1      -4.991  10.142  19.563  0.00  0.00    -0.247 N 
ATOM     36  N   UNL     1      -5.105   8.916  20.114  0.00  0.00    -0.065 NA
BRANCH  35  37
ATOM     37  C   UNL     1      -5.547  10.359  18.237  0.00  0.00    +0.180 C 
BRANCH  37  38
ATOM     38  C   UNL     1      -4.602  10.061  17.098  0.00  0.00    -0.026 A 
ATOM     39  C   UNL     1      -3.966  11.102  16.409  0.00  0.00    +0.009 A 
ATOM     40  C   UNL     1      -3.092  10.816  15.357  0.00  0.00    +0.046 A 
ATOM     41  C   UNL     1      -2.827   9.496  14.989  0.00  0.00    +0.120 A 
ATOM     42  C   UNL     1      -3.474   8.457  15.654  0.00  0.00    +0.046 A 
ATOM     43  C   UNL     1      -4.357   8.736  16.704  0.00  0.00    +0.009 A 
BRANCH  41  44
ATOM     44  O   UNL     1      -1.971   9.342  13.934  0.00  0.00    -0.495 OA
ATOM     45  C   UNL     1      -1.672   7.995  13.580  0.00  0.00    +0.277 C 
ENDBRANCH  41  44
ENDBRANCH  37  38
ENDBRANCH  35  37
ENDBRANCH  31  33
ENDBRANCH  30  31
ENDBRANCH  26  30
ENDBRANCH  25  28
ENDBRANCH   1  25
TORSDOF 16
