REMARK VINA RESULT:    -4.348      2.342      5.441
REMARK INTER + INTRA:         -12.081
REMARK INTER:                  -8.306
REMARK INTRA:                  -3.775
REMARK UNBOUND:                -3.793
REMARK  Name = lig_assembled_21.pdb
REMARK  20 active torsions:
REMARK  status: ('A' for Active; 'I' for Inactive)
REMARK    1  A    between atoms: _2  and  _9
REMARK    2  A    between atoms: _4  and  _23
REMARK    3  A    between atoms: _6  and  _7
REMARK    4  A    between atoms: _6  and  _23
REMARK    5  A    between atoms: _9  and  _10
REMARK    6  A    between atoms: _11  and  _18
REMARK    7  A    between atoms: _12  and  _13
REMARK    8  A    between atoms: _12  and  _18
REMARK    9  A    between atoms: _19  and  _39
REMARK   10  A    between atoms: _21  and  _27
REMARK   11  A    between atoms: _22  and  _26
REMARK   12  A    between atoms: _26  and  _27
REMARK   13  A    between atoms: _29  and  _30
REMARK   14  A    between atoms: _31  and  _32
REMARK   15  A    between atoms: _33  and  _35
REMARK   16  A    between atoms: _35  and  _36
REMARK   17  A    between atoms: _35  and  _37
REMARK   18  A    between atoms: _37  and  _38
REMARK   19  A    between atoms: _37  and  _39
REMARK   20  A    between atoms: _40  and  _42
REMARK                            x       y       z     vdW  Elec       q    Type
REMARK                         _______ _______ _______ _____ _____    ______ ____
ROOT
ATOM      1  C   UNL     1      -2.901  10.706  26.444  0.00  0.00    +0.163 C 
ENDROOT
BRANCH   1   2
ATOM      2  O   UNL     1      -2.093  10.317  25.321  0.00  0.00    -0.388 OA
ATOM      3  H   UNL     1      -2.365   9.448  25.016  0.00  0.00    +0.210 HD
ENDBRANCH   1   2
BRANCH   1   4
ATOM      4  C   UNL     1      -4.338  10.175  26.297  0.00  0.00    +0.175 C 
BRANCH   4   5
ATOM      5  C   UNL     1      -4.829  10.231  24.843  0.00  0.00    +0.176 C 
ATOM      6  O   UNL     1      -4.277  11.428  24.230  0.00  0.00    -0.332 OA
ATOM      7  C   UNL     1      -4.555  11.594  22.800  0.00  0.00    +0.277 C 
ATOM      8  C   UNL     1      -6.078  11.525  22.534  0.00  0.00    +0.110 C 
ATOM      9  C   UNL     1      -6.716  10.284  23.194  0.00  0.00    +0.143 C 
ATOM     10  C   UNL     1      -6.360  10.209  24.679  0.00  0.00    +0.133 C 
BRANCH  10  11
ATOM     11  N   UNL     1      -6.901   8.978  25.276  0.00  0.00    -0.308 N 
ATOM     12  H   UNL     1      -6.481   8.099  25.007  0.00  0.00    +0.149 HD
ATOM     13  C   UNL     1      -7.909   8.946  26.152  0.00  0.00    +0.210 C 
ATOM     14  C   UNL     1      -8.544  10.299  26.522  0.00  0.00    +0.109 C 
ATOM     15  O   UNL     1      -8.332   7.900  26.647  0.00  0.00    -0.276 OA
ENDBRANCH  10  11
BRANCH   7  16
ATOM     16  C   UNL     1      -3.837  10.507  21.974  0.00  0.00    +0.414 C 
ATOM     17  O   UNL     1      -4.190  10.273  20.819  0.00  0.00    -0.240 OA
ATOM     18  O   UNL     1      -2.906   9.866  22.461  0.00  0.00    -0.240 OA
ENDBRANCH   7  16
BRANCH   9  19
ATOM     19  O   UNL     1      -8.136  10.340  23.053  0.00  0.00    -0.390 OA
ATOM     20  H   UNL     1      -8.367  10.998  22.393  0.00  0.00    +0.210 HD
ENDBRANCH   9  19
BRANCH   7  21
ATOM     21  O   UNL     1      -4.080  12.905  22.400  0.00  0.00    -0.343 OA
ATOM     22  C   UNL     1      -4.641  14.014  23.147  0.00  0.00    +0.198 C 
ENDBRANCH   7  21
ENDBRANCH   4   5
BRANCH   4  23
ATOM     23  O   UNL     1      -5.231  10.918  27.152  0.00  0.00    -0.387 OA
ATOM     24  H   UNL     1      -4.926  10.861  28.060  0.00  0.00    +0.210 HD
ENDBRANCH   4  23
ENDBRANCH   1   4
BRANCH   1  25
ATOM     25  C   UNL     1      -2.291  10.173  27.736  0.00  0.00    +0.141 C 
BRANCH  25  28
ATOM     26  C   UNL     1      -3.206  10.079  30.029  0.00  0.00    +0.401 C 
ATOM     27  O   UNL     1      -2.988   8.873  30.168  0.00  0.00    -0.226 OA
ATOM     28  N   UNL     1      -2.918  10.766  28.923  0.00  0.00    -0.279 N 
ATOM     29  H   UNL     1      -3.144  11.751  28.901  0.00  0.00    +0.152 HD
BRANCH  26  30
ATOM     30  O   UNL     1      -3.809  10.803  31.104  0.00  0.00    -0.444 OA
BRANCH  30  31
ATOM     31  C   UNL     1      -2.802  11.527  31.816  0.00  0.00    +0.292 C 
BRANCH  31  33
ATOM     32  N   UNL     1      -2.250  13.893  31.364  0.00  0.00    -0.131 NA
ATOM     33  C   UNL     1      -3.131  12.964  31.845  0.00  0.00    +0.120 A 
ATOM     34  C   UNL     1      -4.271  13.606  32.276  0.00  0.00    +0.137 A 
ATOM     35  N   UNL     1      -4.059  14.917  31.945  0.00  0.00    -0.247 N 
ATOM     36  N   UNL     1      -2.827  15.084  31.431  0.00  0.00    -0.065 NA
BRANCH  35  37
ATOM     37  C   UNL     1      -5.040  15.993  32.035  0.00  0.00    +0.184 C 
BRANCH  37  38
ATOM     38  C   UNL     1      -5.273  16.776  30.766  0.00  0.00    +0.016 A 
ATOM     39  C   UNL     1      -6.016  16.250  29.693  0.00  0.00    +0.137 A 
ATOM     40  C   UNL     1      -6.223  16.992  28.530  0.00  0.00    +0.047 A 
ATOM     41  C   UNL     1      -5.701  18.282  28.430  0.00  0.00    +0.004 A 
ATOM     42  C   UNL     1      -4.949  18.815  29.476  0.00  0.00    +0.001 A 
ATOM     43  C   UNL     1      -4.739  18.070  30.636  0.00  0.00    +0.009 A 
BRANCH  39  44
ATOM     44  O   UNL     1      -6.464  14.914  29.821  0.00  0.00    -0.426 OA
BRANCH  44  45
ATOM     45  C   UNL     1      -6.110  13.913  28.915  0.00  0.00    +0.309 C 
ATOM     46  O   UNL     1      -5.028  13.349  28.821  0.00  0.00    -0.251 OA
ATOM     47  C   UNL     1      -7.310  13.560  28.087  0.00  0.00    +0.136 C 
ENDBRANCH  44  45
ENDBRANCH  39  44
ENDBRANCH  37  38
ENDBRANCH  35  37
ENDBRANCH  31  33
ENDBRANCH  30  31
ENDBRANCH  26  30
ENDBRANCH  25  28
ENDBRANCH   1  25
TORSDOF 17
