REMARK VINA RESULT:    -4.204      0.000      0.000
REMARK INTER + INTRA:         -13.143
REMARK INTER:                  -9.014
REMARK INTRA:                  -4.129
REMARK UNBOUND:                -4.638
REMARK  Name = lig_assembled_11.pdb
REMARK  22 active torsions:
REMARK  status: ('A' for Active; 'I' for Inactive)
REMARK    1  A    between atoms: _2  and  _9
REMARK    2  A    between atoms: _4  and  _21
REMARK    3  A    between atoms: _5  and  _9
REMARK    4  A    between atoms: _5  and  _13
REMARK    5  A    between atoms: _6  and  _7
REMARK    6  A    between atoms: _6  and  _21
REMARK    7  A    between atoms: _9  and  _10
REMARK    8  A    between atoms: _10  and  _11
REMARK    9  A    between atoms: _11  and  _12
REMARK   10  A    between atoms: _12  and  _15
REMARK   11  A    between atoms: _17  and  _37
REMARK   12  A    between atoms: _19  and  _25
REMARK   13  A    between atoms: _20  and  _24
REMARK   14  A    between atoms: _24  and  _25
REMARK   15  A    between atoms: _27  and  _28
REMARK   16  A    between atoms: _29  and  _30
REMARK   17  A    between atoms: _31  and  _33
REMARK   18  A    between atoms: _33  and  _34
REMARK   19  A    between atoms: _33  and  _35
REMARK   20  A    between atoms: _35  and  _36
REMARK   21  A    between atoms: _35  and  _37
REMARK   22  A    between atoms: _38  and  _40
REMARK                            x       y       z     vdW  Elec       q    Type
REMARK                         _______ _______ _______ _____ _____    ______ ____
ROOT
ATOM      1  C   UNL     1      -2.943  11.281  23.660  0.00  0.00    +0.163 C 
ENDROOT
BRANCH   1   2
ATOM      2  O   UNL     1      -2.143  11.496  24.834  0.00  0.00    -0.388 OA
ATOM      3  H   UNL     1      -2.346  12.357  25.207  0.00  0.00    +0.210 HD
ENDBRANCH   1   2
BRANCH   1   4
ATOM      4  C   UNL     1      -3.911  10.102  23.862  0.00  0.00    +0.175 C 
BRANCH   4   5
ATOM      5  C   UNL     1      -3.872   9.563  25.300  0.00  0.00    +0.176 C 
ATOM      6  O   UNL     1      -2.794   8.590  25.383  0.00  0.00    -0.332 OA
ATOM      7  C   UNL     1      -2.537   8.041  26.718  0.00  0.00    +0.277 C 
ATOM      8  C   UNL     1      -3.833   7.440  27.315  0.00  0.00    +0.110 C 
ATOM      9  C   UNL     1      -5.015   8.427  27.220  0.00  0.00    +0.143 C 
ATOM     10  C   UNL     1      -5.191   8.937  25.789  0.00  0.00    +0.133 C 
BRANCH  10  11
ATOM     11  N   UNL     1      -6.264   9.942  25.728  0.00  0.00    -0.308 N 
ATOM     12  H   UNL     1      -6.151  10.786  26.272  0.00  0.00    +0.149 HD
ATOM     13  C   UNL     1      -7.377   9.811  25.001  0.00  0.00    +0.210 C 
ATOM     14  C   UNL     1      -7.531   8.502  24.204  0.00  0.00    +0.109 C 
ATOM     15  O   UNL     1      -8.252  10.676  24.958  0.00  0.00    -0.276 OA
ENDBRANCH  10  11
BRANCH   7  16
ATOM     16  C   UNL     1      -1.993   9.134  27.663  0.00  0.00    +0.414 C 
ATOM     17  O   UNL     1      -1.323  10.063  27.215  0.00  0.00    -0.240 OA
ATOM     18  O   UNL     1      -2.224   9.085  28.871  0.00  0.00    -0.240 OA
ENDBRANCH   7  16
BRANCH   7  19
ATOM     19  O   UNL     1      -1.558   6.979  26.586  0.00  0.00    -0.343 OA
ATOM     20  C   UNL     1      -1.991   5.842  25.796  0.00  0.00    +0.198 C 
ENDBRANCH   7  19
BRANCH   9  21
ATOM     21  O   UNL     1      -6.218   7.780  27.640  0.00  0.00    -0.390 OA
ATOM     22  H   UNL     1      -6.948   8.401  27.594  0.00  0.00    +0.210 HD
ENDBRANCH   9  21
ENDBRANCH   4   5
BRANCH   4  23
ATOM     23  O   UNL     1      -3.610   9.047  22.927  0.00  0.00    -0.387 OA
ATOM     24  H   UNL     1      -4.204   9.107  22.175  0.00  0.00    +0.210 HD
ENDBRANCH   4  23
ENDBRANCH   1   4
BRANCH   1  25
ATOM     25  C   UNL     1      -3.736  12.541  23.331  0.00  0.00    +0.141 C 
BRANCH  25  28
ATOM     26  C   UNL     1      -5.518  13.516  24.738  0.00  0.00    +0.401 C 
ATOM     27  O   UNL     1      -6.415  13.291  23.922  0.00  0.00    -0.226 OA
ATOM     28  N   UNL     1      -4.237  13.204  24.541  0.00  0.00    -0.279 N 
ATOM     29  H   UNL     1      -3.573  13.437  25.266  0.00  0.00    +0.152 HD
BRANCH  26  30
ATOM     30  O   UNL     1      -5.849  14.152  25.975  0.00  0.00    -0.444 OA
BRANCH  30  31
ATOM     31  C   UNL     1      -6.485  13.210  26.842  0.00  0.00    +0.292 C 
BRANCH  31  33
ATOM     32  N   UNL     1      -4.833  12.142  28.345  0.00  0.00    -0.131 NA
ATOM     33  C   UNL     1      -5.763  13.121  28.125  0.00  0.00    +0.120 A 
ATOM     34  C   UNL     1      -5.850  13.915  29.245  0.00  0.00    +0.138 A 
ATOM     35  N   UNL     1      -4.982  13.346  30.131  0.00  0.00    -0.238 N 
ATOM     36  N   UNL     1      -4.351  12.297  29.571  0.00  0.00    -0.065 NA
BRANCH  35  37
ATOM     37  C   UNL     1      -4.567  13.782  31.461  0.00  0.00    +0.217 C 
BRANCH  37  38
ATOM     38  C   UNL     1      -3.206  14.460  31.488  0.00  0.00    +0.330 C 
ATOM     39  O   UNL     1      -2.869  15.357  32.246  0.00  0.00    -0.249 OA
BRANCH  38  40
ATOM     40  O   UNL     1      -2.336  13.989  30.559  0.00  0.00    -0.479 OA
ATOM     41  H   UNL     1      -2.680  13.852  29.655  0.00  0.00    +0.295 HD
ENDBRANCH  38  40
ENDBRANCH  37  38
BRANCH  37  42
ATOM     42  C   UNL     1      -4.686  12.650  32.498  0.00  0.00    +0.049 C 
BRANCH  42  43
ATOM     43  C   UNL     1      -3.351  12.145  33.059  0.00  0.00    +0.123 C 
BRANCH  43  44
ATOM     44  C   UNL     1      -2.948  10.842  32.407  0.00  0.00    +0.305 C 
ATOM     45  O   UNL     1      -3.205   9.735  32.847  0.00  0.00    -0.251 OA
BRANCH  44  46
ATOM     46  O   UNL     1      -2.236  11.027  31.272  0.00  0.00    -0.481 OA
ATOM     47  H   UNL     1      -2.778  11.130  30.467  0.00  0.00    +0.295 HD
ENDBRANCH  44  46
ENDBRANCH  43  44
ENDBRANCH  42  43
ENDBRANCH  37  42
ENDBRANCH  35  37
ENDBRANCH  31  33
ENDBRANCH  30  31
ENDBRANCH  26  30
ENDBRANCH  25  28
ENDBRANCH   1  25
TORSDOF 20
