REMARK VINA RESULT:    -5.040      5.643      7.595
REMARK INTER + INTRA:         -11.301
REMARK INTER:                  -9.442
REMARK INTRA:                  -1.859
REMARK UNBOUND:                -1.695
REMARK  Name = lig_assembled_12.pdb
REMARK  19 active torsions:
REMARK  status: ('A' for Active; 'I' for Inactive)
REMARK    1  A    between atoms: _2  and  _9
REMARK    2  A    between atoms: _4  and  _21
REMARK    3  A    between atoms: _6  and  _7
REMARK    4  A    between atoms: _6  and  _21
REMARK    5  A    between atoms: _9  and  _16
REMARK    6  A    between atoms: _10  and  _11
REMARK    7  A    between atoms: _10  and  _16
REMARK    8  A    between atoms: _17  and  _37
REMARK    9  A    between atoms: _19  and  _25
REMARK   10  A    between atoms: _20  and  _24
REMARK   11  A    between atoms: _24  and  _25
REMARK   12  A    between atoms: _27  and  _28
REMARK   13  A    between atoms: _29  and  _30
REMARK   14  A    between atoms: _31  and  _33
REMARK   15  A    between atoms: _33  and  _34
REMARK   16  A    between atoms: _33  and  _35
REMARK   17  A    between atoms: _35  and  _36
REMARK   18  A    between atoms: _35  and  _37
REMARK   19  A    between atoms: _38  and  _40
REMARK                            x       y       z     vdW  Elec       q    Type
REMARK                         _______ _______ _______ _____ _____    ______ ____
ROOT
ATOM      1  C   UNL     1      -4.981  11.424  21.238  0.00  0.00    +0.163 C 
ENDROOT
BRANCH   1   2
ATOM      2  O   UNL     1      -5.272  10.022  21.115  0.00  0.00    -0.388 OA
ATOM      3  H   UNL     1      -4.470   9.548  20.883  0.00  0.00    +0.210 HD
ENDBRANCH   1   2
BRANCH   1   4
ATOM      4  C   UNL     1      -3.625  11.646  21.930  0.00  0.00    +0.175 C 
BRANCH   4   5
ATOM      5  C   UNL     1      -3.779  11.893  23.438  0.00  0.00    +0.176 C 
ATOM      6  O   UNL     1      -4.188  10.642  24.057  0.00  0.00    -0.332 OA
ATOM      7  C   UNL     1      -4.284  10.660  25.519  0.00  0.00    +0.277 C 
ATOM      8  C   UNL     1      -5.215  11.805  25.987  0.00  0.00    +0.110 C 
ATOM      9  C   UNL     1      -4.839  13.150  25.331  0.00  0.00    +0.143 C 
ATOM     10  C   UNL     1      -4.765  13.016  23.809  0.00  0.00    +0.133 C 
BRANCH  10  11
ATOM     11  N   UNL     1      -4.321  14.281  23.202  0.00  0.00    -0.308 N 
ATOM     12  H   UNL     1      -3.366  14.570  23.360  0.00  0.00    +0.149 HD
ATOM     13  C   UNL     1      -5.098  15.071  22.456  0.00  0.00    +0.210 C 
ATOM     14  C   UNL     1      -6.556  14.616  22.256  0.00  0.00    +0.109 C 
ATOM     15  O   UNL     1      -4.694  16.118  21.948  0.00  0.00    -0.276 OA
ENDBRANCH  10  11
BRANCH   7  16
ATOM     16  C   UNL     1      -2.890  10.837  26.156  0.00  0.00    +0.414 C 
ATOM     17  O   UNL     1      -2.773  11.389  27.249  0.00  0.00    -0.240 OA
ATOM     18  O   UNL     1      -1.882  10.428  25.577  0.00  0.00    -0.240 OA
ENDBRANCH   7  16
BRANCH   9  19
ATOM     19  O   UNL     1      -5.811  14.140  25.670  0.00  0.00    -0.390 OA
ATOM     20  H   UNL     1      -6.259  13.885  26.480  0.00  0.00    +0.210 HD
ENDBRANCH   9  19
BRANCH   7  21
ATOM     21  O   UNL     1      -4.859   9.398  25.947  0.00  0.00    -0.343 OA
ATOM     22  C   UNL     1      -5.046   8.422  24.891  0.00  0.00    +0.198 C 
ENDBRANCH   7  21
ENDBRANCH   4   5
BRANCH   4  23
ATOM     23  O   UNL     1      -2.928  12.748  21.315  0.00  0.00    -0.387 OA
ATOM     24  H   UNL     1      -2.631  13.358  21.994  0.00  0.00    +0.210 HD
ENDBRANCH   4  23
ENDBRANCH   1   4
BRANCH   1  25
ATOM     25  C   UNL     1      -4.962  12.077  19.860  0.00  0.00    +0.141 C 
BRANCH  25  28
ATOM     26  C   UNL     1      -5.611  11.098  17.685  0.00  0.00    +0.401 C 
ATOM     27  O   UNL     1      -6.483  11.940  17.460  0.00  0.00    -0.226 OA
ATOM     28  N   UNL     1      -4.857  11.082  18.785  0.00  0.00    -0.279 N 
ATOM     29  H   UNL     1      -4.174  10.344  18.884  0.00  0.00    +0.152 HD
BRANCH  26  30
ATOM     30  O   UNL     1      -5.380  10.064  16.726  0.00  0.00    -0.444 OA
BRANCH  30  31
ATOM     31  C   UNL     1      -5.918  10.457  15.460  0.00  0.00    +0.292 C 
BRANCH  31  33
ATOM     32  N   UNL     1      -3.547  10.514  14.737  0.00  0.00    -0.131 NA
ATOM     33  C   UNL     1      -4.844  10.928  14.567  0.00  0.00    +0.120 A 
ATOM     34  C   UNL     1      -4.904  11.787  13.495  0.00  0.00    +0.139 A 
ATOM     35  N   UNL     1      -3.610  11.880  13.073  0.00  0.00    -0.226 N 
ATOM     36  N   UNL     1      -2.800  11.095  13.807  0.00  0.00    -0.063 NA
BRANCH  35  37
ATOM     37  C   UNL     1      -3.073  12.644  11.960  0.00  0.00    +0.305 C 
BRANCH  37  38
ATOM     38  O   UNL     1      -1.774  13.119  12.303  0.00  0.00    -0.353 OA
BRANCH  38  39
ATOM     39  C   UNL     1      -0.823  12.831  11.286  0.00  0.00    +0.197 C 
BRANCH  39  40
ATOM     40  C   UNL     1       0.167  13.963  11.258  0.00  0.00    -0.022 A 
ATOM     41  C   UNL     1       1.215  13.971  10.327  0.00  0.00    +0.006 A 
ATOM     42  C   UNL     1       2.155  15.002  10.327  0.00  0.00    +0.000 A 
ATOM     43  C   UNL     1       2.063  16.030  11.263  0.00  0.00    +0.000 A 
ATOM     44  C   UNL     1       1.033  16.028  12.202  0.00  0.00    +0.000 A 
ATOM     45  C   UNL     1       0.091  14.998  12.202  0.00  0.00    +0.006 A 
ENDBRANCH  39  40
ENDBRANCH  38  39
ENDBRANCH  37  38
ENDBRANCH  35  37
ENDBRANCH  31  33
ENDBRANCH  30  31
ENDBRANCH  26  30
ENDBRANCH  25  28
ENDBRANCH   1  25
TORSDOF 17
