REMARK VINA RESULT:    -5.220      3.342      6.423
REMARK INTER + INTRA:         -11.322
REMARK INTER:                  -8.579
REMARK INTRA:                  -2.743
REMARK UNBOUND:                -2.287
REMARK  Name = lig_assembled_52.pdb
REMARK  16 active torsions:
REMARK  status: ('A' for Active; 'I' for Inactive)
REMARK    1  A    between atoms: _2  and  _10
REMARK    2  A    between atoms: _5  and  _18
REMARK    3  A    between atoms: _7  and  _8
REMARK    4  A    between atoms: _7  and  _18
REMARK    5  A    between atoms: _14  and  _34
REMARK    6  A    between atoms: _16  and  _22
REMARK    7  A    between atoms: _17  and  _21
REMARK    8  A    between atoms: _21  and  _22
REMARK    9  A    between atoms: _24  and  _25
REMARK   10  A    between atoms: _26  and  _27
REMARK   11  A    between atoms: _28  and  _30
REMARK   12  A    between atoms: _30  and  _31
REMARK   13  A    between atoms: _30  and  _32
REMARK   14  A    between atoms: _32  and  _33
REMARK   15  A    between atoms: _32  and  _34
REMARK   16  A    between atoms: _35  and  _37
REMARK                            x       y       z     vdW  Elec       q    Type
REMARK                         _______ _______ _______ _____ _____    ______ ____
ROOT
ATOM      1  C   UNL     1      -6.709   8.870  23.444  0.00  0.00    +0.163 C 
ENDROOT
BRANCH   1   2
ATOM      2  O   UNL     1      -6.312   9.118  24.802  0.00  0.00    -0.388 OA
ATOM      3  H   UNL     1      -6.378  10.057  24.990  0.00  0.00    +0.210 HD
ENDBRANCH   1   2
BRANCH   1   4
ATOM      4  C   UNL     1      -5.935   7.682  22.882  0.00  0.00    +0.141 C 
BRANCH   4   7
ATOM      5  C   UNL     1      -3.810   6.549  23.432  0.00  0.00    +0.401 C 
ATOM      6  O   UNL     1      -3.557   6.251  22.263  0.00  0.00    -0.226 OA
ATOM      7  N   UNL     1      -4.903   7.212  23.813  0.00  0.00    -0.279 N 
ATOM      8  H   UNL     1      -5.027   7.401  24.798  0.00  0.00    +0.152 HD
BRANCH   5   9
ATOM      9  O   UNL     1      -2.893   6.166  24.461  0.00  0.00    -0.444 OA
BRANCH   9  10
ATOM     10  C   UNL     1      -3.586   6.069  25.708  0.00  0.00    +0.292 C 
BRANCH  10  12
ATOM     11  N   UNL     1      -1.774   7.419  26.714  0.00  0.00    -0.131 NA
ATOM     12  C   UNL     1      -3.099   7.098  26.646  0.00  0.00    +0.121 A 
ATOM     13  C   UNL     1      -3.795   7.871  27.546  0.00  0.00    +0.143 A 
ATOM     14  N   UNL     1      -2.845   8.673  28.135  0.00  0.00    -0.218 N 
ATOM     15  N   UNL     1      -1.627   8.373  27.623  0.00  0.00    -0.060 NA
BRANCH  14  16
ATOM     16  C   UNL     1      -3.021   9.681  29.107  0.00  0.00    +0.085 A 
ATOM     17  C   UNL     1      -2.654   9.494  30.442  0.00  0.00    +0.031 A 
ATOM     18  C   UNL     1      -2.873  10.521  31.359  0.00  0.00    +0.022 A 
ATOM     19  C   UNL     1      -3.447  11.698  30.908  0.00  0.00    +0.111 A 
ATOM     20  N   UNL     1      -3.804  11.912  29.624  0.00  0.00    -0.261 NA
ATOM     21  C   UNL     1      -3.585  10.901  28.748  0.00  0.00    +0.138 A 
ENDBRANCH  14  16
ENDBRANCH  10  12
ENDBRANCH   9  10
ENDBRANCH   5   9
ENDBRANCH   4   7
ENDBRANCH   1   4
BRANCH   1  22
ATOM     22  C   UNL     1      -6.460  10.108  22.564  0.00  0.00    +0.175 C 
BRANCH  22  23
ATOM     23  C   UNL     1      -5.102  10.762  22.857  0.00  0.00    +0.176 C 
ATOM     24  O   UNL     1      -5.239  11.555  24.068  0.00  0.00    -0.332 OA
ATOM     25  C   UNL     1      -4.006  12.173  24.564  0.00  0.00    +0.277 C 
ATOM     26  C   UNL     1      -3.343  13.024  23.453  0.00  0.00    +0.110 C 
ATOM     27  C   UNL     1      -3.204  12.233  22.135  0.00  0.00    +0.143 C 
ATOM     28  C   UNL     1      -4.545  11.631  21.714  0.00  0.00    +0.133 C 
BRANCH  28  29
ATOM     29  N   UNL     1      -4.383  10.807  20.505  0.00  0.00    -0.308 N 
ATOM     30  H   UNL     1      -3.718  10.048  20.537  0.00  0.00    +0.149 HD
ATOM     31  C   UNL     1      -5.057  10.999  19.368  0.00  0.00    +0.210 C 
ATOM     32  C   UNL     1      -6.044  12.181  19.342  0.00  0.00    +0.109 C 
ATOM     33  O   UNL     1      -4.912  10.284  18.375  0.00  0.00    -0.276 OA
ENDBRANCH  28  29
BRANCH  25  34
ATOM     34  C   UNL     1      -3.013  11.098  25.051  0.00  0.00    +0.414 C 
ATOM     35  O   UNL     1      -3.234   9.906  24.838  0.00  0.00    -0.240 OA
ATOM     36  O   UNL     1      -1.990  11.421  25.658  0.00  0.00    -0.240 OA
ENDBRANCH  25  34
BRANCH  27  37
ATOM     37  O   UNL     1      -2.731  13.097  21.102  0.00  0.00    -0.390 OA
ATOM     38  H   UNL     1      -2.158  13.767  21.481  0.00  0.00    +0.210 HD
ENDBRANCH  27  37
BRANCH  25  39
ATOM     39  O   UNL     1      -4.355  13.051  25.665  0.00  0.00    -0.343 OA
ATOM     40  C   UNL     1      -5.771  13.116  25.970  0.00  0.00    +0.198 C 
ENDBRANCH  25  39
ENDBRANCH  22  23
BRANCH  22  41
ATOM     41  O   UNL     1      -7.522  11.067  22.744  0.00  0.00    -0.387 OA
ATOM     42  H   UNL     1      -7.167  11.955  22.671  0.00  0.00    +0.210 HD
ENDBRANCH  22  41
ENDBRANCH   1  22
TORSDOF 14
