REMARK VINA RESULT:    -4.784      2.882      7.852
REMARK INTER + INTRA:         -11.633
REMARK INTER:                  -8.763
REMARK INTRA:                  -2.870
REMARK UNBOUND:                -2.934
REMARK  Name = lig_assembled_72.pdb
REMARK  20 active torsions:
REMARK  status: ('A' for Active; 'I' for Inactive)
REMARK    1  A    between atoms: _2  and  _9
REMARK    2  A    between atoms: _4  and  _17
REMARK    3  A    between atoms: _5  and  _9
REMARK    4  A    between atoms: _5  and  _12
REMARK    5  A    between atoms: _6  and  _7
REMARK    6  A    between atoms: _6  and  _17
REMARK    7  A    between atoms: _9  and  _10
REMARK    8  A    between atoms: _9  and  _11
REMARK    9  A    between atoms: _13  and  _33
REMARK   10  A    between atoms: _15  and  _21
REMARK   11  A    between atoms: _16  and  _20
REMARK   12  A    between atoms: _20  and  _21
REMARK   13  A    between atoms: _23  and  _24
REMARK   14  A    between atoms: _25  and  _26
REMARK   15  A    between atoms: _27  and  _29
REMARK   16  A    between atoms: _29  and  _30
REMARK   17  A    between atoms: _29  and  _31
REMARK   18  A    between atoms: _31  and  _32
REMARK   19  A    between atoms: _31  and  _33
REMARK   20  A    between atoms: _34  and  _36
REMARK                            x       y       z     vdW  Elec       q    Type
REMARK                         _______ _______ _______ _____ _____    ______ ____
ROOT
ATOM      1  C   UNL     1      -4.990  13.248  22.036  0.00  0.00    +0.163 C 
ENDROOT
BRANCH   1   2
ATOM      2  O   UNL     1      -6.047  14.019  21.442  0.00  0.00    -0.388 OA
ATOM      3  H   UNL     1      -6.641  14.333  22.129  0.00  0.00    +0.210 HD
ENDBRANCH   1   2
BRANCH   1   4
ATOM      4  C   UNL     1      -3.940  12.853  20.984  0.00  0.00    +0.175 C 
BRANCH   4   5
ATOM      5  C   UNL     1      -4.465  11.783  20.015  0.00  0.00    +0.176 C 
ATOM      6  O   UNL     1      -5.436  12.415  19.136  0.00  0.00    -0.332 OA
ATOM      7  C   UNL     1      -5.971  11.566  18.068  0.00  0.00    +0.277 C 
ATOM      8  C   UNL     1      -6.569  10.265  18.659  0.00  0.00    +0.110 C 
ATOM      9  C   UNL     1      -5.584   9.574  19.626  0.00  0.00    +0.143 C 
ATOM     10  C   UNL     1      -5.088  10.550  20.694  0.00  0.00    +0.133 C 
BRANCH  10  11
ATOM     11  N   UNL     1      -4.086   9.904  21.556  0.00  0.00    -0.308 N 
ATOM     12  H   UNL     1      -3.192   9.670  21.146  0.00  0.00    +0.149 HD
ATOM     13  C   UNL     1      -4.280   9.607  22.844  0.00  0.00    +0.210 C 
ATOM     14  C   UNL     1      -5.661   9.953  23.431  0.00  0.00    +0.109 C 
ATOM     15  O   UNL     1      -3.416   9.079  23.545  0.00  0.00    -0.276 OA
ENDBRANCH  10  11
BRANCH   7  16
ATOM     16  C   UNL     1      -4.869  11.209  17.048  0.00  0.00    +0.414 C 
ATOM     17  O   UNL     1      -4.831  10.089  16.542  0.00  0.00    -0.240 OA
ATOM     18  O   UNL     1      -4.018  12.042  16.732  0.00  0.00    -0.240 OA
ENDBRANCH   7  16
BRANCH   9  19
ATOM     19  O   UNL     1      -6.229   8.469  20.260  0.00  0.00    -0.390 OA
ATOM     20  H   UNL     1      -6.406   7.785  19.611  0.00  0.00    +0.210 HD
ENDBRANCH   9  19
BRANCH   7  21
ATOM     21  O   UNL     1      -7.033  12.296  17.403  0.00  0.00    -0.343 OA
ATOM     22  C   UNL     1      -8.350  11.698  17.512  0.00  0.00    +0.198 C 
ENDBRANCH   7  21
ENDBRANCH   4   5
BRANCH   4  23
ATOM     23  O   UNL     1      -2.738  12.389  21.632  0.00  0.00    -0.387 OA
ATOM     24  H   UNL     1      -2.731  11.429  21.643  0.00  0.00    +0.210 HD
ENDBRANCH   4  23
ENDBRANCH   1   4
BRANCH   1  25
ATOM     25  C   UNL     1      -4.322  14.049  23.148  0.00  0.00    +0.141 C 
BRANCH  25  28
ATOM     26  C   UNL     1      -3.441  12.746  25.054  0.00  0.00    +0.401 C 
ATOM     27  O   UNL     1      -2.309  12.636  24.577  0.00  0.00    -0.226 OA
ATOM     28  N   UNL     1      -4.445  13.385  24.451  0.00  0.00    -0.279 N 
ATOM     29  H   UNL     1      -5.341  13.413  24.918  0.00  0.00    +0.152 HD
BRANCH  26  30
ATOM     30  O   UNL     1      -3.719  12.157  26.327  0.00  0.00    -0.444 OA
BRANCH  30  31
ATOM     31  C   UNL     1      -2.510  11.635  26.886  0.00  0.00    +0.292 C 
BRANCH  31  33
ATOM     32  N   UNL     1      -1.497   9.438  26.373  0.00  0.00    -0.131 NA
ATOM     33  C   UNL     1      -2.539  10.162  26.884  0.00  0.00    +0.120 A 
ATOM     34  C   UNL     1      -3.506   9.293  27.342  0.00  0.00    +0.137 A 
ATOM     35  N   UNL     1      -2.995   8.051  27.083  0.00  0.00    -0.244 N 
ATOM     36  N   UNL     1      -1.784   8.152  26.499  0.00  0.00    -0.065 NA
BRANCH  35  37
ATOM     37  C   UNL     1      -3.598   6.741  27.368  0.00  0.00    +0.083 C 
ATOM     38  C   UNL     1      -3.509   5.858  26.109  0.00  0.00    +0.038 C 
ATOM     39  C   UNL     1      -5.076   6.926  27.762  0.00  0.00    +0.038 C 
BRANCH  37  40
ATOM     40  C   UNL     1      -2.853   6.005  28.516  0.00  0.00    +0.185 C 
BRANCH  40  41
ATOM     41  O   UNL     1      -1.467   5.813  28.239  0.00  0.00    -0.393 OA
ATOM     42  H   UNL     1      -1.226   6.498  27.579  0.00  0.00    +0.209 HD
ENDBRANCH  40  41
ENDBRANCH  37  40
ENDBRANCH  35  37
ENDBRANCH  31  33
ENDBRANCH  30  31
ENDBRANCH  26  30
ENDBRANCH  25  28
ENDBRANCH   1  25
TORSDOF 16
