REMARK VINA RESULT:    -4.807      3.670      4.381
REMARK INTER + INTRA:         -11.693
REMARK INTER:                  -9.559
REMARK INTRA:                  -2.134
REMARK UNBOUND:                -3.373
REMARK  Name = lig_assembled_27.pdb
REMARK  16 active torsions:
REMARK  status: ('A' for Active; 'I' for Inactive)
REMARK    1  A    between atoms: _2  and  _9
REMARK    2  A    between atoms: _4  and  _18
REMARK    3  A    between atoms: _6  and  _7
REMARK    4  A    between atoms: _6  and  _18
REMARK    5  A    between atoms: _14  and  _34
REMARK    6  A    between atoms: _16  and  _22
REMARK    7  A    between atoms: _17  and  _21
REMARK    8  A    between atoms: _21  and  _22
REMARK    9  A    between atoms: _24  and  _25
REMARK   10  A    between atoms: _26  and  _27
REMARK   11  A    between atoms: _28  and  _30
REMARK   12  A    between atoms: _30  and  _31
REMARK   13  A    between atoms: _30  and  _32
REMARK   14  A    between atoms: _32  and  _33
REMARK   15  A    between atoms: _32  and  _34
REMARK   16  A    between atoms: _35  and  _37
REMARK                            x       y       z     vdW  Elec       q    Type
REMARK                         _______ _______ _______ _____ _____    ______ ____
ROOT
ATOM      1  C   UNL     1      -3.308  11.805  25.128  0.00  0.00    +0.163 C 
ENDROOT
BRANCH   1   2
ATOM      2  O   UNL     1      -2.156  10.951  25.041  0.00  0.00    -0.388 OA
ATOM      3  H   UNL     1      -2.383  10.155  24.555  0.00  0.00    +0.210 HD
ENDBRANCH   1   2
BRANCH   1   4
ATOM      4  C   UNL     1      -3.055  13.101  24.365  0.00  0.00    +0.141 C 
BRANCH   4   7
ATOM      5  C   UNL     1      -5.090  13.519  23.028  0.00  0.00    +0.401 C 
ATOM      6  O   UNL     1      -5.776  13.842  24.001  0.00  0.00    -0.226 OA
ATOM      7  N   UNL     1      -3.811  13.153  23.107  0.00  0.00    -0.279 N 
ATOM      8  H   UNL     1      -3.334  12.896  22.254  0.00  0.00    +0.152 HD
BRANCH   5   9
ATOM      9  O   UNL     1      -5.683  13.527  21.727  0.00  0.00    -0.444 OA
BRANCH   9  10
ATOM     10  C   UNL     1      -5.892  12.182  21.289  0.00  0.00    +0.292 C 
BRANCH  10  12
ATOM     11  N   UNL     1      -6.929  12.200  19.042  0.00  0.00    -0.131 NA
ATOM     12  C   UNL     1      -5.811  12.101  19.819  0.00  0.00    +0.121 A 
ATOM     13  C   UNL     1      -4.714  11.933  19.007  0.00  0.00    +0.143 A 
ATOM     14  N   UNL     1      -5.213  11.943  17.725  0.00  0.00    -0.220 N 
ATOM     15  N   UNL     1      -6.558  12.101  17.772  0.00  0.00    -0.060 NA
BRANCH  14  16
ATOM     16  C   UNL     1      -4.513  11.817  16.497  0.00  0.00    +0.068 A 
ATOM     17  C   UNL     1      -4.392  12.928  15.648  0.00  0.00    +0.028 A 
ATOM     18  C   UNL     1      -3.708  12.814  14.434  0.00  0.00    +0.003 A 
ATOM     19  C   UNL     1      -3.143  11.596  14.062  0.00  0.00    +0.020 A 
ATOM     20  C   UNL     1      -3.261  10.494  14.905  0.00  0.00    +0.043 A 
ATOM     21 CL   UNL     1      -2.562   8.989  14.445  0.00  0.00    -0.083 Cl
ATOM     22  C   UNL     1      -3.941  10.594  16.120  0.00  0.00    +0.047 A 
ENDBRANCH  14  16
ENDBRANCH  10  12
ENDBRANCH   9  10
ENDBRANCH   5   9
ENDBRANCH   4   7
ENDBRANCH   1   4
BRANCH   1  23
ATOM     23  C   UNL     1      -3.643  12.129  26.594  0.00  0.00    +0.175 C 
BRANCH  23  24
ATOM     24  C   UNL     1      -3.367  10.941  27.526  0.00  0.00    +0.176 C 
ATOM     25  O   UNL     1      -3.991   9.762  26.946  0.00  0.00    -0.332 OA
ATOM     26  C   UNL     1      -3.742   8.501  27.650  0.00  0.00    +0.277 C 
ATOM     27  C   UNL     1      -4.143   8.625  29.140  0.00  0.00    +0.110 C 
ATOM     28  C   UNL     1      -3.529   9.881  29.793  0.00  0.00    +0.143 C 
ATOM     29  C   UNL     1      -3.847  11.134  28.977  0.00  0.00    +0.133 C 
BRANCH  29  30
ATOM     30  N   UNL     1      -3.184  12.311  29.560  0.00  0.00    -0.308 N 
ATOM     31  H   UNL     1      -2.174  12.330  29.563  0.00  0.00    +0.149 HD
ATOM     32  C   UNL     1      -3.830  13.355  30.087  0.00  0.00    +0.210 C 
ATOM     33  C   UNL     1      -5.368  13.284  30.091  0.00  0.00    +0.109 C 
ATOM     34  O   UNL     1      -3.248  14.334  30.555  0.00  0.00    -0.276 OA
ENDBRANCH  29  30
BRANCH  26  35
ATOM     35  C   UNL     1      -2.255   8.102  27.547  0.00  0.00    +0.414 C 
ATOM     36  O   UNL     1      -1.705   7.516  28.478  0.00  0.00    -0.240 OA
ATOM     37  O   UNL     1      -1.607   8.366  26.534  0.00  0.00    -0.240 OA
ENDBRANCH  26  35
BRANCH  28  38
ATOM     38  O   UNL     1      -4.043  10.037  31.116  0.00  0.00    -0.390 OA
ATOM     39  H   UNL     1      -3.429   9.655  31.746  0.00  0.00    +0.210 HD
ENDBRANCH  28  38
BRANCH  26  40
ATOM     40  O   UNL     1      -4.566   7.475  27.038  0.00  0.00    -0.343 OA
ATOM     41  C   UNL     1      -5.088   6.481  27.956  0.00  0.00    +0.198 C 
ENDBRANCH  26  40
ENDBRANCH  23  24
BRANCH  23  42
ATOM     42  O   UNL     1      -5.020  12.541  26.709  0.00  0.00    -0.387 OA
ATOM     43  H   UNL     1      -5.086  13.486  26.549  0.00  0.00    +0.210 HD
ENDBRANCH  23  42
ENDBRANCH   1  23
TORSDOF 14
