REMARK VINA RESULT:    -4.345      3.233      4.998
REMARK INTER + INTRA:         -10.517
REMARK INTER:                  -7.980
REMARK INTRA:                  -2.537
REMARK UNBOUND:                -2.997
REMARK  Name = lig_assembled_15.pdb
REMARK  16 active torsions:
REMARK  status: ('A' for Active; 'I' for Inactive)
REMARK    1  A    between atoms: _2  and  _9
REMARK    2  A    between atoms: _4  and  _18
REMARK    3  A    between atoms: _6  and  _7
REMARK    4  A    between atoms: _6  and  _18
REMARK    5  A    between atoms: _14  and  _34
REMARK    6  A    between atoms: _16  and  _22
REMARK    7  A    between atoms: _17  and  _21
REMARK    8  A    between atoms: _21  and  _22
REMARK    9  A    between atoms: _24  and  _25
REMARK   10  A    between atoms: _26  and  _27
REMARK   11  A    between atoms: _28  and  _30
REMARK   12  A    between atoms: _30  and  _31
REMARK   13  A    between atoms: _30  and  _32
REMARK   14  A    between atoms: _32  and  _33
REMARK   15  A    between atoms: _32  and  _34
REMARK   16  A    between atoms: _35  and  _37
REMARK                            x       y       z     vdW  Elec       q    Type
REMARK                         _______ _______ _______ _____ _____    ______ ____
ROOT
ATOM      1  C   UNL     1      -3.960  13.432  22.756  0.00  0.00    +0.163 C 
ENDROOT
BRANCH   1   2
ATOM      2  O   UNL     1      -2.893  14.342  22.440  0.00  0.00    -0.388 OA
ATOM      3  H   UNL     1      -2.161  14.200  23.046  0.00  0.00    +0.210 HD
ENDBRANCH   1   2
BRANCH   1   4
ATOM      4  C   UNL     1      -3.535  12.001  22.444  0.00  0.00    +0.141 C 
BRANCH   4   7
ATOM      5  C   UNL     1      -3.974   9.716  23.275  0.00  0.00    +0.401 C 
ATOM      6  O   UNL     1      -3.184   9.179  22.496  0.00  0.00    -0.226 OA
ATOM      7  N   UNL     1      -4.205  11.029  23.316  0.00  0.00    -0.279 N 
ATOM      8  H   UNL     1      -4.880  11.374  23.985  0.00  0.00    +0.152 HD
BRANCH   5   9
ATOM      9  O   UNL     1      -4.702   8.901  24.197  0.00  0.00    -0.444 OA
BRANCH   9  10
ATOM     10  C   UNL     1      -3.790   8.077  24.930  0.00  0.00    +0.292 C 
BRANCH  10  12
ATOM     11  N   UNL     1      -1.973   9.017  26.321  0.00  0.00    -0.131 NA
ATOM     12  C   UNL     1      -3.304   8.790  26.126  0.00  0.00    +0.121 A 
ATOM     13  C   UNL     1      -4.009   9.328  27.179  0.00  0.00    +0.143 A 
ATOM     14  N   UNL     1      -3.057   9.906  27.986  0.00  0.00    -0.220 N 
ATOM     15  N   UNL     1      -1.830   9.689  27.455  0.00  0.00    -0.060 NA
BRANCH  14  16
ATOM     16  C   UNL     1      -3.241  10.653  29.180  0.00  0.00    +0.067 A 
ATOM     17  C   UNL     1      -2.911  10.107  30.429  0.00  0.00    +0.029 A 
ATOM     18  C   UNL     1      -3.138  10.843  31.597  0.00  0.00    +0.017 A 
ATOM     19  C   UNL     1      -3.687  12.121  31.518  0.00  0.00    +0.018 A 
ATOM     20 BR   UNL     1      -4.014  13.098  33.103  0.00  0.00    -0.050 Br
ATOM     21  C   UNL     1      -4.003  12.679  30.282  0.00  0.00    +0.017 A 
ATOM     22  C   UNL     1      -3.779  11.948  29.112  0.00  0.00    +0.029 A 
ENDBRANCH  14  16
ENDBRANCH  10  12
ENDBRANCH   9  10
ENDBRANCH   5   9
ENDBRANCH   4   7
ENDBRANCH   1   4
BRANCH   1  23
ATOM     23  C   UNL     1      -5.230  13.776  21.959  0.00  0.00    +0.175 C 
BRANCH  23  24
ATOM     24  C   UNL     1      -5.946  15.014  22.519  0.00  0.00    +0.176 C 
ATOM     25  O   UNL     1      -5.149  16.183  22.181  0.00  0.00    -0.332 OA
ATOM     26  C   UNL     1      -5.734  17.476  22.546  0.00  0.00    +0.277 C 
ATOM     27  C   UNL     1      -6.090  17.503  24.053  0.00  0.00    +0.110 C 
ATOM     28  C   UNL     1      -6.911  16.264  24.466  0.00  0.00    +0.143 C 
ATOM     29  C   UNL     1      -6.213  14.974  24.035  0.00  0.00    +0.133 C 
BRANCH  29  30
ATOM     30  N   UNL     1      -7.046  13.805  24.357  0.00  0.00    -0.308 N 
ATOM     31  H   UNL     1      -7.898  13.673  23.830  0.00  0.00    +0.149 HD
ATOM     32  C   UNL     1      -6.749  12.905  25.299  0.00  0.00    +0.210 C 
ATOM     33  C   UNL     1      -5.457  13.148  26.101  0.00  0.00    +0.109 C 
ATOM     34  O   UNL     1      -7.458  11.927  25.537  0.00  0.00    -0.276 OA
ENDBRANCH  29  30
BRANCH  26  35
ATOM     35  C   UNL     1      -7.000  17.759  21.711  0.00  0.00    +0.414 C 
ATOM     36  O   UNL     1      -7.892  18.477  22.162  0.00  0.00    -0.240 OA
ATOM     37  O   UNL     1      -7.130  17.269  20.589  0.00  0.00    -0.240 OA
ENDBRANCH  26  35
BRANCH  28  38
ATOM     38  O   UNL     1      -7.087  16.253  25.883  0.00  0.00    -0.390 OA
ATOM     39  H   UNL     1      -6.262  16.494  26.310  0.00  0.00    +0.210 HD
ENDBRANCH  28  38
BRANCH  26  40
ATOM     40  O   UNL     1      -4.742  18.505  22.292  0.00  0.00    -0.343 OA
ATOM     41  C   UNL     1      -3.686  18.124  21.374  0.00  0.00    +0.198 C 
ENDBRANCH  26  40
ENDBRANCH  23  24
BRANCH  23  42
ATOM     42  O   UNL     1      -6.127  12.648  21.944  0.00  0.00    -0.387 OA
ATOM     43  H   UNL     1      -6.302  12.390  21.036  0.00  0.00    +0.210 HD
ENDBRANCH  23  42
ENDBRANCH   1  23
TORSDOF 14
