REMARK VINA RESULT:    -4.372      2.846      4.664
REMARK INTER + INTRA:         -10.614
REMARK INTER:                  -7.822
REMARK INTRA:                  -2.792
REMARK UNBOUND:                -2.792
REMARK  Name = lig_assembled_5.pdb
REMARK  18 active torsions:
REMARK  status: ('A' for Active; 'I' for Inactive)
REMARK    1  A    between atoms: _2  and  _9
REMARK    2  A    between atoms: _4  and  _20
REMARK    3  A    between atoms: _6  and  _7
REMARK    4  A    between atoms: _6  and  _20
REMARK    5  A    between atoms: _12  and  _15
REMARK    6  A    between atoms: _13  and  _15
REMARK    7  A    between atoms: _16  and  _36
REMARK    8  A    between atoms: _18  and  _24
REMARK    9  A    between atoms: _19  and  _23
REMARK   10  A    between atoms: _23  and  _24
REMARK   11  A    between atoms: _26  and  _27
REMARK   12  A    between atoms: _28  and  _29
REMARK   13  A    between atoms: _30  and  _32
REMARK   14  A    between atoms: _32  and  _33
REMARK   15  A    between atoms: _32  and  _34
REMARK   16  A    between atoms: _34  and  _35
REMARK   17  A    between atoms: _34  and  _36
REMARK   18  A    between atoms: _37  and  _39
REMARK                            x       y       z     vdW  Elec       q    Type
REMARK                         _______ _______ _______ _____ _____    ______ ____
ROOT
ATOM      1  C   UNL     1      -3.840  12.533  22.630  0.00  0.00    +0.163 C 
ENDROOT
BRANCH   1   2
ATOM      2  O   UNL     1      -4.579  12.602  21.399  0.00  0.00    -0.388 OA
ATOM      3  H   UNL     1      -4.915  11.730  21.178  0.00  0.00    +0.210 HD
ENDBRANCH   1   2
BRANCH   1   4
ATOM      4  C   UNL     1      -3.142  11.182  22.744  0.00  0.00    +0.141 C 
BRANCH   4   7
ATOM      5  C   UNL     1      -4.042   8.991  23.448  0.00  0.00    +0.401 C 
ATOM      6  O   UNL     1      -3.692   8.410  22.418  0.00  0.00    -0.226 OA
ATOM      7  N   UNL     1      -3.831  10.287  23.682  0.00  0.00    -0.279 N 
ATOM      8  H   UNL     1      -4.165  10.675  24.553  0.00  0.00    +0.152 HD
BRANCH   5   9
ATOM      9  O   UNL     1      -4.721   8.251  24.466  0.00  0.00    -0.444 OA
BRANCH   9  10
ATOM     10  C   UNL     1      -3.777   7.462  25.194  0.00  0.00    +0.292 C 
BRANCH  10  12
ATOM     11  N   UNL     1      -1.930   8.328  26.596  0.00  0.00    -0.131 NA
ATOM     12  C   UNL     1      -3.269   8.216  26.357  0.00  0.00    +0.121 A 
ATOM     13  C   UNL     1      -3.959   8.895  27.334  0.00  0.00    +0.143 A 
ATOM     14  N   UNL     1      -2.987   9.438  28.144  0.00  0.00    -0.220 N 
ATOM     15  N   UNL     1      -1.766   9.065  27.686  0.00  0.00    -0.060 NA
BRANCH  14  16
ATOM     16  C   UNL     1      -3.143  10.286  29.271  0.00  0.00    +0.067 A 
ATOM     17  C   UNL     1      -3.699  11.563  29.136  0.00  0.00    +0.031 A 
ATOM     18  C   UNL     1      -3.787  12.406  30.247  0.00  0.00    +0.048 A 
ATOM     19  C   UNL     1      -3.346  11.985  31.502  0.00  0.00    +0.120 A 
ATOM     20  C   UNL     1      -2.806  10.708  31.644  0.00  0.00    +0.048 A 
ATOM     21  C   UNL     1      -2.703   9.859  30.533  0.00  0.00    +0.031 A 
BRANCH  19  22
ATOM     22  O   UNL     1      -3.432  12.929  32.488  0.00  0.00    -0.495 OA
ATOM     23  C   UNL     1      -4.365  13.979  32.275  0.00  0.00    +0.277 C 
ENDBRANCH  19  22
ENDBRANCH  14  16
ENDBRANCH  10  12
ENDBRANCH   9  10
ENDBRANCH   5   9
ENDBRANCH   4   7
ENDBRANCH   1   4
BRANCH   1  24
ATOM     24  C   UNL     1      -4.768  12.736  23.840  0.00  0.00    +0.175 C 
BRANCH  24  25
ATOM     25  C   UNL     1      -5.783  13.864  23.607  0.00  0.00    +0.176 C 
ATOM     26  O   UNL     1      -5.095  14.954  22.934  0.00  0.00    -0.332 OA
ATOM     27  C   UNL     1      -5.937  16.085  22.532  0.00  0.00    +0.277 C 
ATOM     28  C   UNL     1      -6.721  16.634  23.749  0.00  0.00    +0.110 C 
ATOM     29  C   UNL     1      -7.445  15.507  24.516  0.00  0.00    +0.143 C 
ATOM     30  C   UNL     1      -6.476  14.382  24.881  0.00  0.00    +0.133 C 
BRANCH  30  31
ATOM     31  N   UNL     1      -7.194  13.275  25.534  0.00  0.00    -0.308 N 
ATOM     32  H   UNL     1      -7.807  12.709  24.964  0.00  0.00    +0.149 HD
ATOM     33  C   UNL     1      -7.088  12.970  26.830  0.00  0.00    +0.210 C 
ATOM     34  C   UNL     1      -6.166  13.868  27.677  0.00  0.00    +0.109 C 
ATOM     35  O   UNL     1      -7.690  12.028  27.347  0.00  0.00    -0.276 OA
ENDBRANCH  30  31
BRANCH  27  36
ATOM     36  C   UNL     1      -6.928  15.663  21.428  0.00  0.00    +0.414 C 
ATOM     37  O   UNL     1      -6.776  14.598  20.831  0.00  0.00    -0.240 OA
ATOM     38  O   UNL     1      -7.880  16.388  21.134  0.00  0.00    -0.240 OA
ENDBRANCH  27  36
BRANCH  27  39
ATOM     39  O   UNL     1      -5.070  17.136  22.035  0.00  0.00    -0.343 OA
ATOM     40  C   UNL     1      -5.056  18.347  22.833  0.00  0.00    +0.198 C 
ENDBRANCH  27  39
BRANCH  29  41
ATOM     41  O   UNL     1      -8.027  16.033  25.709  0.00  0.00    -0.390 OA
ATOM     42  H   UNL     1      -8.787  16.574  25.484  0.00  0.00    +0.210 HD
ENDBRANCH  29  41
ENDBRANCH  24  25
BRANCH  24  43
ATOM     43  O   UNL     1      -3.989  13.006  25.023  0.00  0.00    -0.387 OA
ATOM     44  H   UNL     1      -4.330  13.790  25.459  0.00  0.00    +0.210 HD
ENDBRANCH  24  43
ENDBRANCH   1  24
TORSDOF 15
