REMARK VINA RESULT:    -4.265      3.484      7.571
REMARK INTER + INTRA:         -11.274
REMARK INTER:                  -8.699
REMARK INTRA:                  -2.575
REMARK UNBOUND:                -2.894
REMARK  Name = lig_assembled_17.pdb
REMARK  22 active torsions:
REMARK  status: ('A' for Active; 'I' for Inactive)
REMARK    1  A    between atoms: _2  and  _10
REMARK    2  A    between atoms: _3  and  _11
REMARK    3  A    between atoms: _3  and  _12
REMARK    4  A    between atoms: _3  and  _14
REMARK    5  A    between atoms: _5  and  _19
REMARK    6  A    between atoms: _6  and  _14
REMARK    7  A    between atoms: _7  and  _8
REMARK    8  A    between atoms: _7  and  _19
REMARK    9  A    between atoms: _10  and  _11
REMARK   10  A    between atoms: _12  and  _13
REMARK   11  A    between atoms: _15  and  _35
REMARK   12  A    between atoms: _17  and  _23
REMARK   13  A    between atoms: _18  and  _22
REMARK   14  A    between atoms: _22  and  _23
REMARK   15  A    between atoms: _25  and  _26
REMARK   16  A    between atoms: _27  and  _28
REMARK   17  A    between atoms: _29  and  _31
REMARK   18  A    between atoms: _31  and  _32
REMARK   19  A    between atoms: _31  and  _33
REMARK   20  A    between atoms: _33  and  _34
REMARK   21  A    between atoms: _33  and  _35
REMARK   22  A    between atoms: _36  and  _38
REMARK                            x       y       z     vdW  Elec       q    Type
REMARK                         _______ _______ _______ _____ _____    ______ ____
ROOT
ATOM      1  C   UNL     1      -4.107  10.563  29.470  0.00  0.00    +0.163 C 
ENDROOT
BRANCH   1   2
ATOM      2  O   UNL     1      -2.782  10.817  29.965  0.00  0.00    -0.388 OA
ATOM      3  H   UNL     1      -2.254  10.019  29.892  0.00  0.00    +0.210 HD
ENDBRANCH   1   2
BRANCH   1   4
ATOM      4  C   UNL     1      -4.901  11.873  29.327  0.00  0.00    +0.175 C 
BRANCH   4   5
ATOM      5  C   UNL     1      -4.516  12.903  30.399  0.00  0.00    +0.176 C 
ATOM      6  O   UNL     1      -4.406  12.205  31.670  0.00  0.00    -0.332 OA
ATOM      7  C   UNL     1      -3.940  13.014  32.800  0.00  0.00    +0.277 C 
ATOM      8  C   UNL     1      -4.829  14.271  32.968  0.00  0.00    +0.110 C 
ATOM      9  C   UNL     1      -5.000  15.030  31.635  0.00  0.00    +0.143 C 
ATOM     10  C   UNL     1      -5.486  14.092  30.529  0.00  0.00    +0.133 C 
BRANCH  10  11
ATOM     11  N   UNL     1      -5.562  14.806  29.245  0.00  0.00    -0.308 N 
ATOM     12  H   UNL     1      -4.695  15.092  28.812  0.00  0.00    +0.149 HD
ATOM     13  C   UNL     1      -6.702  15.101  28.614  0.00  0.00    +0.210 C 
ATOM     14  C   UNL     1      -8.007  14.674  29.312  0.00  0.00    +0.109 C 
ATOM     15  O   UNL     1      -6.735  15.687  27.531  0.00  0.00    -0.276 OA
ENDBRANCH  10  11
BRANCH   7  16
ATOM     16  C   UNL     1      -2.472  13.444  32.596  0.00  0.00    +0.414 C 
ATOM     17  O   UNL     1      -2.120  14.593  32.861  0.00  0.00    -0.240 OA
ATOM     18  O   UNL     1      -1.641  12.643  32.167  0.00  0.00    -0.240 OA
ENDBRANCH   7  16
BRANCH   9  19
ATOM     19  O   UNL     1      -5.944  16.089  31.801  0.00  0.00    -0.390 OA
ATOM     20  H   UNL     1      -6.511  16.137  31.028  0.00  0.00    +0.210 HD
ENDBRANCH   9  19
BRANCH   7  21
ATOM     21  O   UNL     1      -4.051  12.212  34.003  0.00  0.00    -0.343 OA
ATOM     22  C   UNL     1      -4.192  10.786  33.778  0.00  0.00    +0.198 C 
ENDBRANCH   7  21
ENDBRANCH   4   5
BRANCH   4  23
ATOM     23  O   UNL     1      -6.316  11.604  29.382  0.00  0.00    -0.387 OA
ATOM     24  H   UNL     1      -6.494  10.743  28.997  0.00  0.00    +0.210 HD
ENDBRANCH   4  23
ENDBRANCH   1   4
BRANCH   1  25
ATOM     25  C   UNL     1      -4.033   9.862  28.117  0.00  0.00    +0.141 C 
BRANCH  25  28
ATOM     26  C   UNL     1      -2.459  10.508  26.326  0.00  0.00    +0.401 C 
ATOM     27  O   UNL     1      -1.749   9.508  26.459  0.00  0.00    -0.226 OA
ATOM     28  N   UNL     1      -3.542  10.758  27.063  0.00  0.00    -0.279 N 
ATOM     29  H   UNL     1      -4.054  11.610  26.885  0.00  0.00    +0.152 HD
BRANCH  26  30
ATOM     30  O   UNL     1      -2.115  11.476  25.330  0.00  0.00    -0.444 OA
BRANCH  30  31
ATOM     31  C   UNL     1      -2.928  11.276  24.170  0.00  0.00    +0.292 C 
BRANCH  31  33
ATOM     32  N   UNL     1      -4.507  13.081  24.769  0.00  0.00    -0.131 NA
ATOM     33  C   UNL     1      -3.669  12.509  23.849  0.00  0.00    +0.120 A 
ATOM     34  C   UNL     1      -3.670  13.271  22.701  0.00  0.00    +0.137 A 
ATOM     35  N   UNL     1      -4.513  14.300  22.997  0.00  0.00    -0.250 N 
ATOM     36  N   UNL     1      -5.023  14.178  24.235  0.00  0.00    -0.065 NA
BRANCH  35  37
ATOM     37  C   UNL     1      -4.851  15.451  22.185  0.00  0.00    +0.160 C 
BRANCH  37  38
ATOM     38  C   UNL     1      -3.649  16.399  22.067  0.00  0.00    +0.107 C 
BRANCH  38  39
ATOM     39  N   UNL     1      -3.968  17.825  21.805  0.00  0.00    -0.301 NA
BRANCH  39  40
ATOM     40  C   UNL     1      -2.920  18.527  21.043  0.00  0.00    +0.081 C 
ATOM     41  C   UNL     1      -1.509  17.954  21.138  0.00  0.00    +0.020 C 
ENDBRANCH  39  40
BRANCH  39  42
ATOM     42  C   UNL     1      -5.304  17.906  21.178  0.00  0.00    +0.081 C 
ATOM     43  C   UNL     1      -5.370  18.764  19.919  0.00  0.00    +0.020 C 
ENDBRANCH  39  42
ENDBRANCH  38  39
ENDBRANCH  37  38
ENDBRANCH  35  37
ENDBRANCH  31  33
ENDBRANCH  30  31
ENDBRANCH  26  30
ENDBRANCH  25  28
ENDBRANCH   1  25
TORSDOF 18
