REMARK VINA RESULT:    -4.823      3.774      7.349
REMARK INTER + INTRA:         -10.863
REMARK INTER:                  -8.132
REMARK INTRA:                  -2.731
REMARK UNBOUND:                -2.233
REMARK  Name = lig_assembled_61.pdb
REMARK  17 active torsions:
REMARK  status: ('A' for Active; 'I' for Inactive)
REMARK    1  A    between atoms: _2  and  _9
REMARK    2  A    between atoms: _4  and  _17
REMARK    3  A    between atoms: _6  and  _7
REMARK    4  A    between atoms: _6  and  _17
REMARK    5  A    between atoms: _9  and  _10
REMARK    6  A    between atoms: _13  and  _33
REMARK    7  A    between atoms: _15  and  _21
REMARK    8  A    between atoms: _16  and  _20
REMARK    9  A    between atoms: _20  and  _21
REMARK   10  A    between atoms: _23  and  _24
REMARK   11  A    between atoms: _25  and  _26
REMARK   12  A    between atoms: _27  and  _29
REMARK   13  A    between atoms: _29  and  _30
REMARK   14  A    between atoms: _29  and  _31
REMARK   15  A    between atoms: _31  and  _32
REMARK   16  A    between atoms: _31  and  _33
REMARK   17  A    between atoms: _34  and  _36
REMARK                            x       y       z     vdW  Elec       q    Type
REMARK                         _______ _______ _______ _____ _____    ______ ____
ROOT
ATOM      1  C   UNL     1      -6.325   8.570  23.357  0.00  0.00    +0.163 C 
ENDROOT
BRANCH   1   2
ATOM      2  O   UNL     1      -6.272   8.602  24.793  0.00  0.00    -0.388 OA
ATOM      3  H   UNL     1      -7.114   8.908  25.138  0.00  0.00    +0.210 HD
ENDBRANCH   1   2
BRANCH   1   4
ATOM      4  C   UNL     1      -5.202   7.694  22.813  0.00  0.00    +0.141 C 
BRANCH   4   7
ATOM      5  C   UNL     1      -3.208   6.502  23.655  0.00  0.00    +0.401 C 
ATOM      6  O   UNL     1      -2.914   6.025  22.557  0.00  0.00    -0.226 OA
ATOM      7  N   UNL     1      -4.265   7.287  23.867  0.00  0.00    -0.279 N 
ATOM      8  H   UNL     1      -4.430   7.622  24.806  0.00  0.00    +0.152 HD
BRANCH   5   9
ATOM      9  O   UNL     1      -2.385   6.204  24.785  0.00  0.00    -0.444 OA
BRANCH   9  10
ATOM     10  C   UNL     1      -3.205   5.773  25.874  0.00  0.00    +0.292 C 
BRANCH  10  12
ATOM     11  N   UNL     1      -1.671   7.185  27.208  0.00  0.00    -0.131 NA
ATOM     12  C   UNL     1      -2.862   6.514  27.103  0.00  0.00    +0.120 A 
ATOM     13  C   UNL     1      -3.576   6.675  28.269  0.00  0.00    +0.137 A 
ATOM     14  N   UNL     1      -2.742   7.403  29.066  0.00  0.00    -0.247 N 
ATOM     15  N   UNL     1      -1.616   7.743  28.411  0.00  0.00    -0.065 NA
BRANCH  14  16
ATOM     16  C   UNL     1      -2.960   7.842  30.433  0.00  0.00    +0.180 C 
BRANCH  16  17
ATOM     17  C   UNL     1      -3.270   9.311  30.504  0.00  0.00    -0.019 A 
ATOM     18  C   UNL     1      -2.725  10.212  31.481  0.00  0.00    +0.013 A 
ATOM     19  C   UNL     1      -3.202  11.498  31.348  0.00  0.00    +0.045 A 
ATOM     20  S   UNL     1      -4.297  11.642  30.046  0.00  0.00    -0.105 S 
ATOM     21  C   UNL     1      -4.144   9.983  29.665  0.00  0.00    +0.050 A 
ENDBRANCH  16  17
ENDBRANCH  14  16
ENDBRANCH  10  12
ENDBRANCH   9  10
ENDBRANCH   5   9
ENDBRANCH   4   7
ENDBRANCH   1   4
BRANCH   1  22
ATOM     22  C   UNL     1      -6.202   9.987  22.771  0.00  0.00    +0.175 C 
BRANCH  22  23
ATOM     23  C   UNL     1      -4.954  10.719  23.285  0.00  0.00    +0.176 C 
ATOM     24  O   UNL     1      -5.225  11.167  24.641  0.00  0.00    -0.332 OA
ATOM     25  C   UNL     1      -4.101  11.799  25.337  0.00  0.00    +0.277 C 
ATOM     26  C   UNL     1      -3.538  12.974  24.500  0.00  0.00    +0.110 C 
ATOM     27  C   UNL     1      -3.263  12.554  23.041  0.00  0.00    +0.143 C 
ATOM     28  C   UNL     1      -4.498  11.905  22.415  0.00  0.00    +0.133 C 
BRANCH  28  29
ATOM     29  N   UNL     1      -4.198  11.430  21.055  0.00  0.00    -0.308 N 
ATOM     30  H   UNL     1      -3.377  10.855  20.927  0.00  0.00    +0.149 HD
ATOM     31  C   UNL     1      -4.938  11.710  19.979  0.00  0.00    +0.210 C 
ATOM     32  C   UNL     1      -6.168  12.611  20.204  0.00  0.00    +0.109 C 
ATOM     33  O   UNL     1      -4.671  11.286  18.854  0.00  0.00    -0.276 OA
ENDBRANCH  28  29
BRANCH  25  34
ATOM     34  C   UNL     1      -2.979  10.775  25.607  0.00  0.00    +0.414 C 
ATOM     35  O   UNL     1      -1.877  11.152  26.002  0.00  0.00    -0.240 OA
ATOM     36  O   UNL     1      -3.176   9.572  25.430  0.00  0.00    -0.240 OA
ENDBRANCH  25  34
BRANCH  25  37
ATOM     37  O   UNL     1      -4.592  12.329  26.596  0.00  0.00    -0.343 OA
ATOM     38  C   UNL     1      -5.863  13.020  26.514  0.00  0.00    +0.198 C 
ENDBRANCH  25  37
BRANCH  27  39
ATOM     39  O   UNL     1      -2.891  13.698  22.271  0.00  0.00    -0.390 OA
ATOM     40  H   UNL     1      -2.003  13.970  22.511  0.00  0.00    +0.210 HD
ENDBRANCH  27  39
ENDBRANCH  22  23
BRANCH  22  41
ATOM     41  O   UNL     1      -7.386  10.753  23.070  0.00  0.00    -0.387 OA
ATOM     42  H   UNL     1      -7.146  11.522  23.592  0.00  0.00    +0.210 HD
ENDBRANCH  22  41
ENDBRANCH   1  22
TORSDOF 15
