REMARK VINA RESULT:    -5.245      2.738     10.245
REMARK INTER + INTRA:         -11.459
REMARK INTER:                  -8.922
REMARK INTRA:                  -2.537
REMARK UNBOUND:                -2.381
REMARK  Name = lig_assembled_7.pdb
REMARK  19 active torsions:
REMARK  status: ('A' for Active; 'I' for Inactive)
REMARK    1  A    between atoms: _2  and  _9
REMARK    2  A    between atoms: _4  and  _21
REMARK    3  A    between atoms: _5  and  _16
REMARK    4  A    between atoms: _6  and  _7
REMARK    5  A    between atoms: _6  and  _21
REMARK    6  A    between atoms: _10  and  _11
REMARK    7  A    between atoms: _13  and  _14
REMARK    8  A    between atoms: _17  and  _37
REMARK    9  A    between atoms: _19  and  _25
REMARK   10  A    between atoms: _20  and  _24
REMARK   11  A    between atoms: _24  and  _25
REMARK   12  A    between atoms: _27  and  _28
REMARK   13  A    between atoms: _29  and  _30
REMARK   14  A    between atoms: _31  and  _33
REMARK   15  A    between atoms: _33  and  _34
REMARK   16  A    between atoms: _33  and  _35
REMARK   17  A    between atoms: _35  and  _36
REMARK   18  A    between atoms: _35  and  _37
REMARK   19  A    between atoms: _38  and  _40
REMARK                            x       y       z     vdW  Elec       q    Type
REMARK                         _______ _______ _______ _____ _____    ______ ____
ROOT
ATOM      1  C   UNL     1      -4.286   8.969  23.828  0.00  0.00    +0.163 C 
ENDROOT
BRANCH   1   2
ATOM      2  O   UNL     1      -3.754   8.217  22.725  0.00  0.00    -0.388 OA
ATOM      3  H   UNL     1      -3.990   8.647  21.900  0.00  0.00    +0.210 HD
ENDBRANCH   1   2
BRANCH   1   4
ATOM      4  C   UNL     1      -4.400   8.078  25.061  0.00  0.00    +0.141 C 
BRANCH   4   7
ATOM      5  C   UNL     1      -2.702   8.733  26.732  0.00  0.00    +0.401 C 
ATOM      6  O   UNL     1      -1.788   8.111  26.186  0.00  0.00    -0.226 OA
ATOM      7  N   UNL     1      -3.956   8.767  26.278  0.00  0.00    -0.279 N 
ATOM      8  H   UNL     1      -4.638   9.298  26.801  0.00  0.00    +0.152 HD
BRANCH   5   9
ATOM      9  O   UNL     1      -2.426   9.466  27.928  0.00  0.00    -0.444 OA
BRANCH   9  10
ATOM     10  C   UNL     1      -3.405   9.147  28.921  0.00  0.00    +0.292 C 
BRANCH  10  12
ATOM     11  N   UNL     1      -4.726  10.319  30.640  0.00  0.00    -0.131 NA
ATOM     12  C   UNL     1      -3.912  10.379  29.552  0.00  0.00    +0.121 A 
ATOM     13  C   UNL     1      -3.698  11.705  29.230  0.00  0.00    +0.143 A 
ATOM     14  N   UNL     1      -4.450  12.428  30.133  0.00  0.00    -0.219 N 
ATOM     15  N   UNL     1      -5.022  11.557  31.001  0.00  0.00    -0.060 NA
BRANCH  14  16
ATOM     16  C   UNL     1      -4.647  13.843  30.231  0.00  0.00    +0.073 A 
ATOM     17  C   UNL     1      -3.746  14.622  31.020  0.00  0.00    -0.024 A 
ATOM     18  C   UNL     1      -3.932  16.018  31.122  0.00  0.00    +0.008 A 
ATOM     19  C   UNL     1      -4.973  16.664  30.461  0.00  0.00    -0.050 A 
ATOM     20  C   UNL     1      -5.141  18.149  30.589  0.00  0.00    +0.044 C 
ATOM     21  C   UNL     1      -5.848  15.901  29.692  0.00  0.00    +0.008 A 
ATOM     22  C   UNL     1      -2.537  14.067  31.741  0.00  0.00    +0.046 C 
ATOM     23  C   UNL     1      -5.723  14.497  29.577  0.00  0.00    -0.024 A 
ATOM     24  C   UNL     1      -6.843  13.851  28.802  0.00  0.00    +0.046 C 
ENDBRANCH  14  16
ENDBRANCH  10  12
ENDBRANCH   9  10
ENDBRANCH   5   9
ENDBRANCH   4   7
ENDBRANCH   1   4
BRANCH   1  25
ATOM     25  C   UNL     1      -5.669   9.548  23.482  0.00  0.00    +0.175 C 
BRANCH  25  26
ATOM     26  C   UNL     1      -5.571  10.743  22.523  0.00  0.00    +0.176 C 
ATOM     27  O   UNL     1      -5.161  10.239  21.222  0.00  0.00    -0.332 OA
ATOM     28  C   UNL     1      -5.116  11.231  20.143  0.00  0.00    +0.277 C 
ATOM     29  C   UNL     1      -4.222  12.429  20.547  0.00  0.00    +0.110 C 
ATOM     30  C   UNL     1      -4.601  12.979  21.938  0.00  0.00    +0.143 C 
ATOM     31  C   UNL     1      -4.619  11.863  22.983  0.00  0.00    +0.133 C 
BRANCH  31  32
ATOM     32  N   UNL     1      -5.066  12.383  24.285  0.00  0.00    -0.308 N 
ATOM     33  H   UNL     1      -6.038  12.641  24.382  0.00  0.00    +0.149 HD
ATOM     34  C   UNL     1      -4.270  12.536  25.347  0.00  0.00    +0.210 C 
ATOM     35  C   UNL     1      -2.788  12.159  25.159  0.00  0.00    +0.109 C 
ATOM     36  O   UNL     1      -4.674  12.961  26.430  0.00  0.00    -0.276 OA
ENDBRANCH  31  32
BRANCH  28  37
ATOM     37  C   UNL     1      -6.534  11.736  19.806  0.00  0.00    +0.414 C 
ATOM     38  O   UNL     1      -7.444  10.935  19.593  0.00  0.00    -0.240 OA
ATOM     39  O   UNL     1      -6.769  12.944  19.748  0.00  0.00    -0.240 OA
ENDBRANCH  28  37
BRANCH  30  40
ATOM     40  O   UNL     1      -3.660  13.978  22.334  0.00  0.00    -0.390 OA
ATOM     41  H   UNL     1      -3.077  13.621  23.008  0.00  0.00    +0.210 HD
ENDBRANCH  30  40
BRANCH  28  42
ATOM     42  O   UNL     1      -4.533  10.598  18.975  0.00  0.00    -0.343 OA
ATOM     43  C   UNL     1      -4.428  11.449  17.806  0.00  0.00    +0.198 C 
ENDBRANCH  28  42
ENDBRANCH  25  26
BRANCH  25  44
ATOM     44  O   UNL     1      -6.361   9.933  24.687  0.00  0.00    -0.387 OA
ATOM     45  H   UNL     1      -6.520   9.156  25.227  0.00  0.00    +0.210 HD
ENDBRANCH  25  44
ENDBRANCH   1  25
TORSDOF 14
