REMARK VINA RESULT:    -5.586      1.936      2.952
REMARK INTER + INTRA:         -13.326
REMARK INTER:                 -11.073
REMARK INTRA:                  -2.253
REMARK UNBOUND:                -2.840
REMARK  Name = lig_assembled_77.pdb
REMARK  19 active torsions:
REMARK  status: ('A' for Active; 'I' for Inactive)
REMARK    1  A    between atoms: _2  and  _10
REMARK    2  A    between atoms: _3  and  _17
REMARK    3  A    between atoms: _5  and  _27
REMARK    4  A    between atoms: _7  and  _8
REMARK    5  A    between atoms: _7  and  _27
REMARK    6  A    between atoms: _13  and  _47
REMARK    7  A    between atoms: _14  and  _47
REMARK    8  A    between atoms: _23  and  _43
REMARK    9  A    between atoms: _25  and  _31
REMARK   10  A    between atoms: _26  and  _30
REMARK   11  A    between atoms: _30  and  _31
REMARK   12  A    between atoms: _33  and  _34
REMARK   13  A    between atoms: _35  and  _36
REMARK   14  A    between atoms: _37  and  _39
REMARK   15  A    between atoms: _39  and  _40
REMARK   16  A    between atoms: _39  and  _41
REMARK   17  A    between atoms: _41  and  _42
REMARK   18  A    between atoms: _41  and  _43
REMARK   19  A    between atoms: _44  and  _46
REMARK                            x       y       z     vdW  Elec       q    Type
REMARK                         _______ _______ _______ _____ _____    ______ ____
ROOT
ATOM      1  C   UNL     1      -4.185   9.795  22.374  0.00  0.00    +0.401 C 
ATOM      2  O   UNL     1      -2.974  10.026  22.377  0.00  0.00    -0.226 OA
ATOM      3  N   UNL     1      -4.725   8.642  22.771  0.00  0.00    -0.279 N 
ATOM      4  H   UNL     1      -5.731   8.551  22.741  0.00  0.00    +0.152 HD
ENDROOT
BRANCH   3   5
ATOM      5  C   UNL     1      -3.941   7.498  23.251  0.00  0.00    +0.141 C 
BRANCH   5   6
ATOM      6  C   UNL     1      -4.113   7.278  24.750  0.00  0.00    +0.163 C 
BRANCH   6   7
ATOM      7  O   UNL     1      -2.876   6.828  25.327  0.00  0.00    -0.388 OA
ATOM      8  H   UNL     1      -2.882   6.999  26.271  0.00  0.00    +0.210 HD
ENDBRANCH   6   7
BRANCH   6   9
ATOM      9  C   UNL     1      -4.583   8.586  25.410  0.00  0.00    +0.175 C 
BRANCH   9  10
ATOM     10  C   UNL     1      -3.788   8.909  26.684  0.00  0.00    +0.176 C 
ATOM     11  O   UNL     1      -4.341   8.116  27.770  0.00  0.00    -0.332 OA
ATOM     12  C   UNL     1      -3.634   8.215  29.051  0.00  0.00    +0.277 C 
ATOM     13  C   UNL     1      -3.517   9.695  29.491  0.00  0.00    +0.110 C 
ATOM     14  C   UNL     1      -2.963  10.584  28.357  0.00  0.00    +0.143 C 
ATOM     15  C   UNL     1      -3.770  10.400  27.071  0.00  0.00    +0.133 C 
BRANCH  15  16
ATOM     16  N   UNL     1      -3.180  11.185  25.976  0.00  0.00    -0.308 N 
ATOM     17  H   UNL     1      -2.240  10.956  25.684  0.00  0.00    +0.149 HD
ATOM     18  C   UNL     1      -3.805  12.181  25.342  0.00  0.00    +0.210 C 
ATOM     19  C   UNL     1      -5.226  12.523  25.828  0.00  0.00    +0.109 C 
ATOM     20  O   UNL     1      -3.291  12.812  24.418  0.00  0.00    -0.276 OA
ENDBRANCH  15  16
BRANCH  12  21
ATOM     21  C   UNL     1      -2.226   7.595  28.948  0.00  0.00    +0.414 C 
ATOM     22  O   UNL     1      -1.654   7.184  29.957  0.00  0.00    -0.240 OA
ATOM     23  O   UNL     1      -1.661   7.504  27.857  0.00  0.00    -0.240 OA
ENDBRANCH  12  21
BRANCH  14  24
ATOM     24  O   UNL     1      -3.014  11.955  28.752  0.00  0.00    -0.390 OA
ATOM     25  H   UNL     1      -2.648  12.049  29.635  0.00  0.00    +0.210 HD
ENDBRANCH  14  24
BRANCH  12  26
ATOM     26  O   UNL     1      -4.411   7.502  30.048  0.00  0.00    -0.343 OA
ATOM     27  C   UNL     1      -5.761   7.995  30.240  0.00  0.00    +0.198 C 
ENDBRANCH  12  26
ENDBRANCH   9  10
BRANCH   9  28
ATOM     28  O   UNL     1      -5.992   8.513  25.710  0.00  0.00    -0.387 OA
ATOM     29  H   UNL     1      -6.147   7.813  26.348  0.00  0.00    +0.210 HD
ENDBRANCH   9  28
ENDBRANCH   6   9
ENDBRANCH   5   6
ENDBRANCH   3   5
BRANCH   1  30
ATOM     30  O   UNL     1      -5.085  10.812  21.925  0.00  0.00    -0.444 OA
BRANCH  30  31
ATOM     31  C   UNL     1      -6.037  10.242  21.023  0.00  0.00    +0.292 C 
BRANCH  31  33
ATOM     32  N   UNL     1      -5.357   8.927  19.042  0.00  0.00    -0.131 NA
ATOM     33  C   UNL     1      -5.465  10.135  19.667  0.00  0.00    +0.121 A 
ATOM     34  C   UNL     1      -4.977  11.117  18.835  0.00  0.00    +0.143 A 
ATOM     35  N   UNL     1      -4.586  10.454  17.694  0.00  0.00    -0.220 N 
ATOM     36  N   UNL     1      -4.814   9.127  17.849  0.00  0.00    -0.060 NA
BRANCH  35  37
ATOM     37  C   UNL     1      -4.083  10.991  16.479  0.00  0.00    +0.067 A 
ATOM     38  C   UNL     1      -4.334  12.325  16.123  0.00  0.00    +0.030 A 
ATOM     39  C   UNL     1      -3.935  12.802  14.870  0.00  0.00    +0.029 A 
ATOM     40  C   UNL     1      -3.282  11.947  13.979  0.00  0.00    +0.094 A 
ATOM     41  C   UNL     1      -2.946  10.645  14.360  0.00  0.00    +0.029 A 
ATOM     42  C   UNL     1      -3.357  10.163  15.605  0.00  0.00    +0.030 A 
BRANCH  40  43
ATOM     43  S   UNL     1      -2.838  12.536  12.358  0.00  0.00    +0.025 S 
ATOM     44  O   UNL     1      -1.708  11.728  11.930  0.00  0.00    -0.164 OA
ATOM     45  O   UNL     1      -4.052  12.586  11.567  0.00  0.00    -0.164 OA
BRANCH  43  46
ATOM     46  C   UNL     1      -2.258  14.214  12.493  0.00  0.00    +0.094 A 
ATOM     47  C   UNL     1      -3.148  15.288  12.458  0.00  0.00    +0.029 A 
ATOM     48  C   UNL     1      -2.652  16.596  12.505  0.00  0.00    +0.024 A 
ATOM     49  C   UNL     1      -1.279  16.845  12.633  0.00  0.00    +0.025 A 
ATOM     50  C   UNL     1      -0.400  15.757  12.637  0.00  0.00    +0.024 A 
ATOM     51  C   UNL     1      -0.882  14.446  12.589  0.00  0.00    +0.029 A 
BRANCH  49  52
ATOM     52  N   UNL     1      -0.785  18.146  12.507  0.00  0.00    -0.358 N 
ATOM     53  H   UNL     1      -0.875  18.547  11.579  0.00  0.00    +0.142 HD
ATOM     54  H   UNL     1      -1.087  18.782  13.237  0.00  0.00    +0.142 HD
ENDBRANCH  49  52
ENDBRANCH  43  46
ENDBRANCH  40  43
ENDBRANCH  35  37
ENDBRANCH  31  33
ENDBRANCH  30  31
ENDBRANCH   1  30
TORSDOF 17
