REMARK VINA RESULT:    -5.446      2.362      3.028
REMARK INTER + INTRA:         -11.239
REMARK INTER:                  -8.822
REMARK INTRA:                  -2.416
REMARK UNBOUND:                -1.813
REMARK  Name = lig_assembled_40.pdb
REMARK  17 active torsions:
REMARK  status: ('A' for Active; 'I' for Inactive)
REMARK    1  A    between atoms: _2  and  _9
REMARK    2  A    between atoms: _4  and  _19
REMARK    3  A    between atoms: _6  and  _7
REMARK    4  A    between atoms: _6  and  _19
REMARK    5  A    between atoms: _12  and  _13
REMARK    6  A    between atoms: _15  and  _35
REMARK    7  A    between atoms: _17  and  _23
REMARK    8  A    between atoms: _18  and  _22
REMARK    9  A    between atoms: _22  and  _23
REMARK   10  A    between atoms: _25  and  _26
REMARK   11  A    between atoms: _27  and  _28
REMARK   12  A    between atoms: _29  and  _31
REMARK   13  A    between atoms: _31  and  _32
REMARK   14  A    between atoms: _31  and  _33
REMARK   15  A    between atoms: _33  and  _34
REMARK   16  A    between atoms: _33  and  _35
REMARK   17  A    between atoms: _36  and  _38
REMARK                            x       y       z     vdW  Elec       q    Type
REMARK                         _______ _______ _______ _____ _____    ______ ____
ROOT
ATOM      1  C   UNL     1      -2.934  11.921  24.139  0.00  0.00    +0.163 C 
ENDROOT
BRANCH   1   2
ATOM      2  O   UNL     1      -1.940  11.761  25.164  0.00  0.00    -0.388 OA
ATOM      3  H   UNL     1      -1.221  12.380  25.012  0.00  0.00    +0.210 HD
ENDBRANCH   1   2
BRANCH   1   4
ATOM      4  C   UNL     1      -3.735  13.196  24.383  0.00  0.00    +0.141 C 
BRANCH   4   7
ATOM      5  C   UNL     1      -5.465  14.020  22.823  0.00  0.00    +0.401 C 
ATOM      6  O   UNL     1      -4.787  14.970  22.424  0.00  0.00    -0.226 OA
ATOM      7  N   UNL     1      -5.054  13.145  23.742  0.00  0.00    -0.279 N 
ATOM      8  H   UNL     1      -5.687  12.404  24.012  0.00  0.00    +0.152 HD
BRANCH   5   9
ATOM      9  O   UNL     1      -6.777  13.829  22.287  0.00  0.00    -0.444 OA
BRANCH   9  10
ATOM     10  C   UNL     1      -6.967  12.447  21.970  0.00  0.00    +0.292 C 
BRANCH  10  12
ATOM     11  N   UNL     1      -7.504  12.687  19.567  0.00  0.00    -0.131 NA
ATOM     12  C   UNL     1      -6.684  12.203  20.543  0.00  0.00    +0.121 A 
ATOM     13  C   UNL     1      -5.641  11.524  19.959  0.00  0.00    +0.143 A 
ATOM     14  N   UNL     1      -5.849  11.647  18.604  0.00  0.00    -0.220 N 
ATOM     15  N   UNL     1      -6.997  12.338  18.391  0.00  0.00    -0.060 NA
BRANCH  14  16
ATOM     16  C   UNL     1      -5.027  11.197  17.539  0.00  0.00    +0.067 A 
ATOM     17  C   UNL     1      -4.399  12.109  16.683  0.00  0.00    +0.028 A 
ATOM     18  C   UNL     1      -3.649  11.651  15.596  0.00  0.00    +0.005 A 
ATOM     19  C   UNL     1      -3.516  10.281  15.350  0.00  0.00    -0.050 A 
ATOM     20  C   UNL     1      -4.115   9.370  16.227  0.00  0.00    +0.005 A 
ATOM     21  C   UNL     1      -2.751   9.786  14.157  0.00  0.00    +0.044 C 
ATOM     22  C   UNL     1      -4.866   9.821  17.316  0.00  0.00    +0.028 A 
ENDBRANCH  14  16
ENDBRANCH  10  12
ENDBRANCH   9  10
ENDBRANCH   5   9
ENDBRANCH   4   7
ENDBRANCH   1   4
BRANCH   1  23
ATOM     23  C   UNL     1      -3.888  10.714  24.104  0.00  0.00    +0.175 C 
BRANCH  23  24
ATOM     24  C   UNL     1      -3.878   9.932  25.426  0.00  0.00    +0.176 C 
ATOM     25  O   UNL     1      -2.899   8.864  25.307  0.00  0.00    -0.332 OA
ATOM     26  C   UNL     1      -2.675   8.071  26.519  0.00  0.00    +0.277 C 
ATOM     27  C   UNL     1      -4.013   7.498  27.046  0.00  0.00    +0.110 C 
ATOM     28  C   UNL     1      -5.096   8.591  27.159  0.00  0.00    +0.143 C 
ATOM     29  C   UNL     1      -5.244   9.356  25.843  0.00  0.00    +0.133 C 
BRANCH  29  30
ATOM     30  N   UNL     1      -6.216  10.451  25.990  0.00  0.00    -0.308 N 
ATOM     31  H   UNL     1      -6.025  11.161  26.683  0.00  0.00    +0.149 HD
ATOM     32  C   UNL     1      -7.333  10.568  25.267  0.00  0.00    +0.210 C 
ATOM     33  C   UNL     1      -7.608   9.456  24.238  0.00  0.00    +0.109 C 
ATOM     34  O   UNL     1      -8.121  11.504  25.402  0.00  0.00    -0.276 OA
ENDBRANCH  29  30
BRANCH  26  35
ATOM     35  C   UNL     1      -2.013   8.928  27.618  0.00  0.00    +0.414 C 
ATOM     36  O   UNL     1      -2.240   8.697  28.805  0.00  0.00    -0.240 OA
ATOM     37  O   UNL     1      -1.252   9.849  27.318  0.00  0.00    -0.240 OA
ENDBRANCH  26  35
BRANCH  28  38
ATOM     38  O   UNL     1      -6.348   7.996  27.501  0.00  0.00    -0.390 OA
ATOM     39  H   UNL     1      -6.763   8.503  28.203  0.00  0.00    +0.210 HD
ENDBRANCH  28  38
BRANCH  26  40
ATOM     40  O   UNL     1      -1.805   6.961  26.175  0.00  0.00    -0.343 OA
ATOM     41  C   UNL     1      -2.339   5.648  26.480  0.00  0.00    +0.198 C 
ENDBRANCH  26  40
ENDBRANCH  23  24
BRANCH  23  42
ATOM     42  O   UNL     1      -3.545   9.842  23.009  0.00  0.00    -0.387 OA
ATOM     43  H   UNL     1      -2.671  10.067  22.681  0.00  0.00    +0.210 HD
ENDBRANCH  23  42
ENDBRANCH   1  23
TORSDOF 14
