REMARK VINA RESULT:    -4.711      2.800      7.189
REMARK INTER + INTRA:         -11.278
REMARK INTER:                  -8.542
REMARK INTRA:                  -2.736
REMARK UNBOUND:                -2.848
REMARK  Name = lig_assembled_63.pdb
REMARK  17 active torsions:
REMARK  status: ('A' for Active; 'I' for Inactive)
REMARK    1  A    between atoms: _2  and  _11
REMARK    2  A    between atoms: _6  and  _20
REMARK    3  A    between atoms: _7  and  _15
REMARK    4  A    between atoms: _8  and  _9
REMARK    5  A    between atoms: _8  and  _20
REMARK    6  A    between atoms: _16  and  _36
REMARK    7  A    between atoms: _18  and  _24
REMARK    8  A    between atoms: _19  and  _23
REMARK    9  A    between atoms: _23  and  _24
REMARK   10  A    between atoms: _26  and  _27
REMARK   11  A    between atoms: _28  and  _29
REMARK   12  A    between atoms: _30  and  _32
REMARK   13  A    between atoms: _32  and  _33
REMARK   14  A    between atoms: _32  and  _34
REMARK   15  A    between atoms: _34  and  _35
REMARK   16  A    between atoms: _34  and  _36
REMARK   17  A    between atoms: _37  and  _39
REMARK                            x       y       z     vdW  Elec       q    Type
REMARK                         _______ _______ _______ _____ _____    ______ ____
ROOT
ATOM      1  C   UNL     1      -3.040  10.041  28.833  0.00  0.00    +0.163 C 
ENDROOT
BRANCH   1   2
ATOM      2  O   UNL     1      -3.179  10.390  27.446  0.00  0.00    -0.388 OA
ATOM      3  H   UNL     1      -3.238  11.344  27.360  0.00  0.00    +0.210 HD
ENDBRANCH   1   2
BRANCH   1   4
ATOM      4  C   UNL     1      -2.817   8.539  28.974  0.00  0.00    +0.141 C 
BRANCH   4   7
ATOM      5  C   UNL     1      -2.961   7.417  26.777  0.00  0.00    +0.401 C 
ATOM      6  O   UNL     1      -1.801   7.686  26.458  0.00  0.00    -0.226 OA
ATOM      7  N   UNL     1      -3.520   7.781  27.931  0.00  0.00    -0.279 N 
ATOM      8  H   UNL     1      -4.482   7.521  28.098  0.00  0.00    +0.152 HD
BRANCH   5   9
ATOM      9  O   UNL     1      -3.776   6.673  25.868  0.00  0.00    -0.444 OA
BRANCH   9  10
ATOM     10  C   UNL     1      -4.914   7.456  25.496  0.00  0.00    +0.292 C 
BRANCH  10  12
ATOM     11  N   UNL     1      -3.670   8.147  23.476  0.00  0.00    -0.131 NA
ATOM     12  C   UNL     1      -4.541   8.458  24.481  0.00  0.00    +0.121 A 
ATOM     13  C   UNL     1      -4.925   9.771  24.347  0.00  0.00    +0.145 A 
ATOM     14  N   UNL     1      -4.226  10.239  23.253  0.00  0.00    -0.200 N 
ATOM     15  N   UNL     1      -3.492   9.231  22.733  0.00  0.00    -0.059 NA
BRANCH  14  16
ATOM     16  C   UNL     1      -4.211  11.580  22.766  0.00  0.00    +0.173 A 
ATOM     17  C   UNL     1      -3.530  12.607  23.424  0.00  0.00    +0.096 A 
ATOM     18  C   UNL     1      -3.663  13.909  22.911  0.00  0.00    +0.024 A 
ATOM     19  C   UNL     1      -4.428  14.146  21.772  0.00  0.00    +0.021 A 
ATOM     20  C   UNL     1      -5.035  13.067  21.163  0.00  0.00    +0.113 A 
ATOM     21  N   UNL     1      -4.948  11.804  21.632  0.00  0.00    -0.235 NA
BRANCH  17  22
ATOM     22  C   UNL     1      -2.687  12.446  24.571  0.00  0.00    +0.103 C 
ATOM     23  N   UNL     1      -2.086  12.350  25.561  0.00  0.00    -0.191 NA
ENDBRANCH  17  22
ENDBRANCH  14  16
ENDBRANCH  10  12
ENDBRANCH   9  10
ENDBRANCH   5   9
ENDBRANCH   4   7
ENDBRANCH   1   4
BRANCH   1  24
ATOM     24  C   UNL     1      -4.289  10.452  29.632  0.00  0.00    +0.175 C 
BRANCH  24  25
ATOM     25  C   UNL     1      -4.170  11.875  30.198  0.00  0.00    +0.176 C 
ATOM     26  O   UNL     1      -4.312  11.795  31.643  0.00  0.00    -0.332 OA
ATOM     27  C   UNL     1      -4.120  13.054  32.369  0.00  0.00    +0.277 C 
ATOM     28  C   UNL     1      -5.061  14.150  31.811  0.00  0.00    +0.110 C 
ATOM     29  C   UNL     1      -4.968  14.250  30.274  0.00  0.00    +0.143 C 
ATOM     30  C   UNL     1      -5.180  12.884  29.621  0.00  0.00    +0.133 C 
BRANCH  30  31
ATOM     31  N   UNL     1      -5.003  12.977  28.163  0.00  0.00    -0.308 N 
ATOM     32  H   UNL     1      -4.092  13.238  27.814  0.00  0.00    +0.149 HD
ATOM     33  C   UNL     1      -5.969  12.739  27.271  0.00  0.00    +0.210 C 
ATOM     34  C   UNL     1      -7.353  12.369  27.836  0.00  0.00    +0.109 C 
ATOM     35  O   UNL     1      -5.788  12.810  26.055  0.00  0.00    -0.276 OA
ENDBRANCH  30  31
BRANCH  27  36
ATOM     36  C   UNL     1      -2.656  13.528  32.264  0.00  0.00    +0.414 C 
ATOM     37  O   UNL     1      -1.736  12.711  32.283  0.00  0.00    -0.240 OA
ATOM     38  O   UNL     1      -2.394  14.727  32.160  0.00  0.00    -0.240 OA
ENDBRANCH  27  36
BRANCH  27  39
ATOM     39  O   UNL     1      -4.460  12.825  33.761  0.00  0.00    -0.343 OA
ATOM     40  C   UNL     1      -5.486  11.825  33.984  0.00  0.00    +0.198 C 
ENDBRANCH  27  39
BRANCH  29  41
ATOM     41  O   UNL     1      -5.956  15.161  29.791  0.00  0.00    -0.390 OA
ATOM     42  H   UNL     1      -5.582  16.044  29.741  0.00  0.00    +0.210 HD
ENDBRANCH  29  41
ENDBRANCH  24  25
BRANCH  24  43
ATOM     43  O   UNL     1      -4.528   9.512  30.698  0.00  0.00    -0.387 OA
ATOM     44  H   UNL     1      -3.793   9.533  31.315  0.00  0.00    +0.210 HD
ENDBRANCH  24  43
ENDBRANCH   1  24
TORSDOF 15
