REMARK VINA RESULT:    -4.676     14.247     17.216
REMARK INTER + INTRA:         -10.103
REMARK INTER:                  -6.673
REMARK INTRA:                  -3.430
REMARK UNBOUND:                -2.010
REMARK  Name = lig_assembled_49.pdb
REMARK  16 active torsions:
REMARK  status: ('A' for Active; 'I' for Inactive)
REMARK    1  A    between atoms: _2  and  _9
REMARK    2  A    between atoms: _4  and  _17
REMARK    3  A    between atoms: _6  and  _7
REMARK    4  A    between atoms: _6  and  _17
REMARK    5  A    between atoms: _13  and  _33
REMARK    6  A    between atoms: _15  and  _21
REMARK    7  A    between atoms: _16  and  _20
REMARK    8  A    between atoms: _20  and  _21
REMARK    9  A    between atoms: _23  and  _24
REMARK   10  A    between atoms: _25  and  _26
REMARK   11  A    between atoms: _27  and  _29
REMARK   12  A    between atoms: _29  and  _30
REMARK   13  A    between atoms: _29  and  _31
REMARK   14  A    between atoms: _31  and  _32
REMARK   15  A    between atoms: _31  and  _33
REMARK   16  A    between atoms: _34  and  _36
REMARK                            x       y       z     vdW  Elec       q    Type
REMARK                         _______ _______ _______ _____ _____    ______ ____
ROOT
ATOM      1  C   UNL     1      -5.975   9.721  12.113  0.00  0.00    +0.175 C 
ENDROOT
BRANCH   1   2
ATOM      2  C   UNL     1      -4.613   9.766  12.821  0.00  0.00    +0.176 C 
ATOM      3  O   UNL     1      -4.475   8.549  13.604  0.00  0.00    -0.332 OA
ATOM      4  C   UNL     1      -3.183   8.366  14.271  0.00  0.00    +0.277 C 
ATOM      5  C   UNL     1      -2.850   9.596  15.152  0.00  0.00    +0.110 C 
ATOM      6  C   UNL     1      -3.013  10.917  14.371  0.00  0.00    +0.143 C 
ATOM      7  C   UNL     1      -4.392  11.000  13.716  0.00  0.00    +0.133 C 
BRANCH   7   8
ATOM      8  N   UNL     1      -4.504  12.222  12.904  0.00  0.00    -0.308 N 
ATOM      9  H   UNL     1      -3.928  12.293  12.077  0.00  0.00    +0.149 HD
ATOM     10  C   UNL     1      -5.316  13.244  13.189  0.00  0.00    +0.210 C 
ATOM     11  C   UNL     1      -6.161  13.117  14.470  0.00  0.00    +0.109 C 
ATOM     12  O   UNL     1      -5.399  14.249  12.482  0.00  0.00    -0.276 OA
ENDBRANCH   7   8
BRANCH   4  13
ATOM     13  C   UNL     1      -2.058   8.155  13.237  0.00  0.00    +0.414 C 
ATOM     14  O   UNL     1      -0.923   8.575  13.459  0.00  0.00    -0.240 OA
ATOM     15  O   UNL     1      -2.285   7.564  12.180  0.00  0.00    -0.240 OA
ENDBRANCH   4  13
BRANCH   6  16
ATOM     16  O   UNL     1      -2.846  12.024  15.258  0.00  0.00    -0.390 OA
ATOM     17  H   UNL     1      -3.197  12.818  14.848  0.00  0.00    +0.210 HD
ENDBRANCH   6  16
BRANCH   4  18
ATOM     18  O   UNL     1      -3.281   7.201  15.131  0.00  0.00    -0.343 OA
ATOM     19  C   UNL     1      -4.495   6.424  14.971  0.00  0.00    +0.198 C 
ENDBRANCH   4  18
ENDBRANCH   1   2
BRANCH   1  20
ATOM     20  O   UNL     1      -6.965   9.131  12.978  0.00  0.00    -0.387 OA
ATOM     21  H   UNL     1      -7.065   8.200  12.763  0.00  0.00    +0.210 HD
ENDBRANCH   1  20
BRANCH   1  22
ATOM     22  C   UNL     1      -5.910   8.954  10.781  0.00  0.00    +0.163 C 
BRANCH  22  23
ATOM     23  O   UNL     1      -4.560   8.564  10.478  0.00  0.00    -0.388 OA
ATOM     24  H   UNL     1      -3.964   8.940  11.130  0.00  0.00    +0.210 HD
ENDBRANCH  22  23
BRANCH  22  25
ATOM     25  C   UNL     1      -6.463   9.830   9.662  0.00  0.00    +0.141 C 
BRANCH  25  28
ATOM     26  C   UNL     1      -6.028  12.261   9.601  0.00  0.00    +0.401 C 
ATOM     27  O   UNL     1      -7.160  12.568   9.983  0.00  0.00    -0.226 OA
ATOM     28  N   UNL     1      -5.619  11.005   9.418  0.00  0.00    -0.279 N 
ATOM     29  H   UNL     1      -4.674  10.854   9.093  0.00  0.00    +0.152 HD
BRANCH  26  30
ATOM     30  O   UNL     1      -5.082  13.298   9.328  0.00  0.00    -0.444 OA
BRANCH  30  31
ATOM     31  C   UNL     1      -3.903  12.729   8.752  0.00  0.00    +0.292 C 
BRANCH  31  33
ATOM     32  N   UNL     1      -2.580  11.852  10.649  0.00  0.00    -0.131 NA
ATOM     33  C   UNL     1      -2.775  12.818   9.698  0.00  0.00    +0.120 A 
ATOM     34  C   UNL     1      -1.795  13.777   9.824  0.00  0.00    +0.137 A 
ATOM     35  N   UNL     1      -1.040  13.341  10.872  0.00  0.00    -0.248 N 
ATOM     36  N   UNL     1      -1.514  12.182  11.363  0.00  0.00    -0.065 NA
BRANCH  35  37
ATOM     37  C   UNL     1       0.112  13.983  11.458  0.00  0.00    +0.109 C 
ATOM     38  C   UNL     1       1.115  14.512  10.431  0.00  0.00    +0.027 C 
ATOM     39  C   UNL     1       1.950  15.486  11.243  0.00  0.00    +0.002 C 
ATOM     40  C   UNL     1       0.940  16.183  12.146  0.00  0.00    +0.002 C 
ATOM     41  C   UNL     1      -0.213  15.195  12.340  0.00  0.00    +0.027 C 
ENDBRANCH  35  37
ENDBRANCH  31  33
ENDBRANCH  30  31
ENDBRANCH  26  30
ENDBRANCH  25  28
ENDBRANCH  22  25
ENDBRANCH   1  22
TORSDOF 14
