REMARK VINA RESULT:    -4.777      4.632      7.061
REMARK INTER + INTRA:         -10.781
REMARK INTER:                  -8.076
REMARK INTRA:                  -2.705
REMARK UNBOUND:                -2.233
REMARK  Name = lig_assembled_61.pdb
REMARK  17 active torsions:
REMARK  status: ('A' for Active; 'I' for Inactive)
REMARK    1  A    between atoms: _2  and  _9
REMARK    2  A    between atoms: _4  and  _17
REMARK    3  A    between atoms: _6  and  _7
REMARK    4  A    between atoms: _6  and  _17
REMARK    5  A    between atoms: _9  and  _10
REMARK    6  A    between atoms: _13  and  _33
REMARK    7  A    between atoms: _15  and  _21
REMARK    8  A    between atoms: _16  and  _20
REMARK    9  A    between atoms: _20  and  _21
REMARK   10  A    between atoms: _23  and  _24
REMARK   11  A    between atoms: _25  and  _26
REMARK   12  A    between atoms: _27  and  _29
REMARK   13  A    between atoms: _29  and  _30
REMARK   14  A    between atoms: _29  and  _31
REMARK   15  A    between atoms: _31  and  _32
REMARK   16  A    between atoms: _31  and  _33
REMARK   17  A    between atoms: _34  and  _36
REMARK                            x       y       z     vdW  Elec       q    Type
REMARK                         _______ _______ _______ _____ _____    ______ ____
ROOT
ATOM      1  C   UNL     1      -2.886  11.797  24.430  0.00  0.00    +0.163 C 
ENDROOT
BRANCH   1   2
ATOM      2  O   UNL     1      -1.984  11.670  25.542  0.00  0.00    -0.388 OA
ATOM      3  H   UNL     1      -1.078  11.682  25.222  0.00  0.00    +0.210 HD
ENDBRANCH   1   2
BRANCH   1   4
ATOM      4  C   UNL     1      -3.297  13.256  24.256  0.00  0.00    +0.141 C 
BRANCH   4   7
ATOM      5  C   UNL     1      -4.391  13.937  22.149  0.00  0.00    +0.401 C 
ATOM      6  O   UNL     1      -3.358  14.388  21.648  0.00  0.00    -0.226 OA
ATOM      7  N   UNL     1      -4.455  13.395  23.365  0.00  0.00    -0.279 N 
ATOM      8  H   UNL     1      -5.351  13.062  23.693  0.00  0.00    +0.152 HD
BRANCH   5   9
ATOM      9  O   UNL     1      -5.608  13.992  21.399  0.00  0.00    -0.444 OA
BRANCH   9  10
ATOM     10  C   UNL     1      -6.255  12.718  21.444  0.00  0.00    +0.292 C 
BRANCH  10  12
ATOM     11  N   UNL     1      -4.679  11.027  20.559  0.00  0.00    -0.131 NA
ATOM     12  C   UNL     1      -5.758  11.849  20.361  0.00  0.00    +0.120 A 
ATOM     13  C   UNL     1      -6.214  11.692  19.071  0.00  0.00    +0.137 A 
ATOM     14  N   UNL     1      -5.336  10.806  18.519  0.00  0.00    -0.247 N 
ATOM     15  N   UNL     1      -4.440  10.377  19.427  0.00  0.00    -0.065 NA
BRANCH  14  16
ATOM     16  C   UNL     1      -5.308  10.296  17.160  0.00  0.00    +0.180 C 
BRANCH  16  17
ATOM     17  C   UNL     1      -5.126  11.397  16.153  0.00  0.00    -0.019 A 
ATOM     18  C   UNL     1      -4.040  12.337  16.163  0.00  0.00    +0.013 A 
ATOM     19  C   UNL     1      -4.131  13.269  15.151  0.00  0.00    +0.045 A 
ATOM     20  S   UNL     1      -5.509  13.020  14.174  0.00  0.00    -0.105 S 
ATOM     21  C   UNL     1      -5.993  11.674  15.108  0.00  0.00    +0.050 A 
ENDBRANCH  16  17
ENDBRANCH  14  16
ENDBRANCH  10  12
ENDBRANCH   9  10
ENDBRANCH   5   9
ENDBRANCH   4   7
ENDBRANCH   1   4
BRANCH   1  22
ATOM     22  C   UNL     1      -4.140  10.931  24.638  0.00  0.00    +0.175 C 
BRANCH  22  23
ATOM     23  C   UNL     1      -3.986   9.965  25.822  0.00  0.00    +0.176 C 
ATOM     24  O   UNL     1      -2.964   8.990  25.474  0.00  0.00    -0.332 OA
ATOM     25  C   UNL     1      -2.604   8.043  26.533  0.00  0.00    +0.277 C 
ATOM     26  C   UNL     1      -3.865   7.315  27.059  0.00  0.00    +0.110 C 
ATOM     27  C   UNL     1      -4.991   8.309  27.413  0.00  0.00    +0.143 C 
ATOM     28  C   UNL     1      -5.282   9.248  26.242  0.00  0.00    +0.133 C 
BRANCH  28  29
ATOM     29  N   UNL     1      -6.295  10.246  26.621  0.00  0.00    -0.308 N 
ATOM     30  H   UNL     1      -6.071  10.884  27.372  0.00  0.00    +0.149 HD
ATOM     31  C   UNL     1      -7.491  10.363  26.039  0.00  0.00    +0.210 C 
ATOM     32  C   UNL     1      -7.813   9.359  24.916  0.00  0.00    +0.109 C 
ATOM     33  O   UNL     1      -8.314  11.218  26.367  0.00  0.00    -0.276 OA
ENDBRANCH  28  29
BRANCH  25  34
ATOM     34  C   UNL     1      -1.903   8.769  27.700  0.00  0.00    +0.414 C 
ATOM     35  O   UNL     1      -1.052   9.628  27.474  0.00  0.00    -0.240 OA
ATOM     36  O   UNL     1      -2.188   8.495  28.867  0.00  0.00    -0.240 OA
ENDBRANCH  25  34
BRANCH  25  37
ATOM     37  O   UNL     1      -1.708   7.054  25.964  0.00  0.00    -0.343 OA
ATOM     38  C   UNL     1      -1.818   5.726  26.538  0.00  0.00    +0.198 C 
ENDBRANCH  25  37
BRANCH  27  39
ATOM     39  O   UNL     1      -6.180   7.591  27.748  0.00  0.00    -0.390 OA
ATOM     40  H   UNL     1      -6.041   7.104  28.564  0.00  0.00    +0.210 HD
ENDBRANCH  27  39
ENDBRANCH  22  23
BRANCH  22  41
ATOM     41  O   UNL     1      -4.442  10.197  23.435  0.00  0.00    -0.387 OA
ATOM     42  H   UNL     1      -5.350  10.370  23.174  0.00  0.00    +0.210 HD
ENDBRANCH  22  41
ENDBRANCH   1  22
TORSDOF 15
