REMARK VINA RESULT:    -4.833      1.975      2.971
REMARK INTER + INTRA:         -11.802
REMARK INTER:                  -9.310
REMARK INTRA:                  -2.492
REMARK UNBOUND:                -2.590
REMARK  Name = lig_assembled_29.pdb
REMARK  21 active torsions:
REMARK  status: ('A' for Active; 'I' for Inactive)
REMARK    1  A    between atoms: _2  and  _9
REMARK    2  A    between atoms: _4  and  _23
REMARK    3  A    between atoms: _6  and  _7
REMARK    4  A    between atoms: _6  and  _23
REMARK    5  A    between atoms: _9  and  _10
REMARK    6  A    between atoms: _12  and  _18
REMARK    7  A    between atoms: _13  and  _18
REMARK    8  A    between atoms: _14  and  _17
REMARK    9  A    between atoms: _15  and  _17
REMARK   10  A    between atoms: _19  and  _39
REMARK   11  A    between atoms: _21  and  _27
REMARK   12  A    between atoms: _22  and  _26
REMARK   13  A    between atoms: _26  and  _27
REMARK   14  A    between atoms: _29  and  _30
REMARK   15  A    between atoms: _31  and  _32
REMARK   16  A    between atoms: _33  and  _35
REMARK   17  A    between atoms: _35  and  _36
REMARK   18  A    between atoms: _35  and  _37
REMARK   19  A    between atoms: _37  and  _38
REMARK   20  A    between atoms: _37  and  _39
REMARK   21  A    between atoms: _40  and  _42
REMARK                            x       y       z     vdW  Elec       q    Type
REMARK                         _______ _______ _______ _____ _____    ______ ____
ROOT
ATOM      1  C   UNL     1      -5.480   8.377  24.218  0.00  0.00    +0.163 C 
ENDROOT
BRANCH   1   2
ATOM      2  O   UNL     1      -5.715   7.060  24.743  0.00  0.00    -0.388 OA
ATOM      3  H   UNL     1      -6.342   7.111  25.468  0.00  0.00    +0.210 HD
ENDBRANCH   1   2
BRANCH   1   4
ATOM      4  C   UNL     1      -5.787   9.453  25.274  0.00  0.00    +0.175 C 
BRANCH   4   5
ATOM      5  C   UNL     1      -4.581   9.731  26.183  0.00  0.00    +0.176 C 
ATOM      6  O   UNL     1      -4.483   8.643  27.142  0.00  0.00    -0.332 OA
ATOM      7  C   UNL     1      -3.318   8.685  28.032  0.00  0.00    +0.277 C 
ATOM      8  C   UNL     1      -3.252  10.043  28.773  0.00  0.00    +0.110 C 
ATOM      9  C   UNL     1      -3.384  11.231  27.797  0.00  0.00    +0.143 C 
ATOM     10  C   UNL     1      -4.627  11.084  26.919  0.00  0.00    +0.133 C 
BRANCH  10  11
ATOM     11  N   UNL     1      -4.695  12.176  25.935  0.00  0.00    -0.308 N 
ATOM     12  H   UNL     1      -3.910  12.298  25.311  0.00  0.00    +0.149 HD
ATOM     13  C   UNL     1      -5.726  13.016  25.813  0.00  0.00    +0.210 C 
ATOM     14  C   UNL     1      -6.896  12.819  26.796  0.00  0.00    +0.109 C 
ATOM     15  O   UNL     1      -5.762  13.913  24.970  0.00  0.00    -0.276 OA
ENDBRANCH  10  11
BRANCH   7  16
ATOM     16  C   UNL     1      -2.014   8.467  27.236  0.00  0.00    +0.414 C 
ATOM     17  O   UNL     1      -1.061   9.231  27.387  0.00  0.00    -0.240 OA
ATOM     18  O   UNL     1      -1.915   7.529  26.445  0.00  0.00    -0.240 OA
ENDBRANCH   7  16
BRANCH   7  19
ATOM     19  O   UNL     1      -3.469   7.632  29.019  0.00  0.00    -0.343 OA
ATOM     20  C   UNL     1      -2.725   7.833  30.247  0.00  0.00    +0.198 C 
ENDBRANCH   7  19
BRANCH   9  21
ATOM     21  O   UNL     1      -3.470  12.452  28.533  0.00  0.00    -0.390 OA
ATOM     22  H   UNL     1      -3.281  12.282  29.459  0.00  0.00    +0.210 HD
ENDBRANCH   9  21
ENDBRANCH   4   5
BRANCH   4  23
ATOM     23  O   UNL     1      -6.926   9.060  26.067  0.00  0.00    -0.387 OA
ATOM     24  H   UNL     1      -7.734   9.307  25.610  0.00  0.00    +0.210 HD
ENDBRANCH   4  23
ENDBRANCH   1   4
BRANCH   1  25
ATOM     25  C   UNL     1      -4.029   8.507  23.766  0.00  0.00    +0.141 C 
BRANCH  25  28
ATOM     26  C   UNL     1      -3.414  10.564  22.543  0.00  0.00    +0.401 C 
ATOM     27  O   UNL     1      -3.024  11.159  23.550  0.00  0.00    -0.226 OA
ATOM     28  N   UNL     1      -3.905   9.324  22.553  0.00  0.00    -0.279 N 
ATOM     29  H   UNL     1      -4.209   8.925  21.676  0.00  0.00    +0.152 HD
BRANCH  26  30
ATOM     30  O   UNL     1      -3.350  11.226  21.277  0.00  0.00    -0.444 OA
BRANCH  30  31
ATOM     31  C   UNL     1      -4.673  11.396  20.759  0.00  0.00    +0.292 C 
BRANCH  31  33
ATOM     32  N   UNL     1      -4.788   9.278  19.474  0.00  0.00    -0.131 NA
ATOM     33  C   UNL     1      -4.833  10.647  19.499  0.00  0.00    +0.120 A 
ATOM     34  C   UNL     1      -5.067  11.113  18.225  0.00  0.00    +0.137 A 
ATOM     35  N   UNL     1      -5.247   9.976  17.490  0.00  0.00    -0.247 N 
ATOM     36  N   UNL     1      -5.033   8.877  18.233  0.00  0.00    -0.065 NA
BRANCH  35  37
ATOM     37  C   UNL     1      -5.668   9.863  16.106  0.00  0.00    +0.180 C 
BRANCH  37  38
ATOM     38  C   UNL     1      -4.595  10.379  15.174  0.00  0.00    -0.022 A 
ATOM     39  C   UNL     1      -3.574   9.521  14.729  0.00  0.00    +0.054 A 
ATOM     40  C   UNL     1      -2.618   9.964  13.803  0.00  0.00    +0.162 A 
ATOM     41  C   UNL     1      -2.679  11.287  13.321  0.00  0.00    +0.162 A 
ATOM     42  C   UNL     1      -3.695  12.137  13.764  0.00  0.00    +0.050 A 
ATOM     43  C   UNL     1      -4.644  11.687  14.685  0.00  0.00    +0.009 A 
BRANCH  40  44
ATOM     44  O   UNL     1      -1.604   9.184  13.305  0.00  0.00    -0.491 OA
ATOM     45  C   UNL     1      -1.585   7.810  13.668  0.00  0.00    +0.277 C 
ENDBRANCH  40  44
BRANCH  41  46
ATOM     46  O   UNL     1      -1.704  11.647  12.422  0.00  0.00    -0.491 OA
ATOM     47  C   UNL     1      -1.648  13.008  12.019  0.00  0.00    +0.277 C 
ENDBRANCH  41  46
ENDBRANCH  37  38
ENDBRANCH  35  37
ENDBRANCH  31  33
ENDBRANCH  30  31
ENDBRANCH  26  30
ENDBRANCH  25  28
ENDBRANCH   1  25
TORSDOF 17
