REMARK VINA RESULT:    -4.466      6.353     12.183
REMARK INTER + INTRA:         -12.355
REMARK INTER:                 -10.155
REMARK INTRA:                  -2.200
REMARK UNBOUND:                -3.581
REMARK  Name = lig_assembled_31.pdb
REMARK  20 active torsions:
REMARK  status: ('A' for Active; 'I' for Inactive)
REMARK    1  A    between atoms: _2  and  _11
REMARK    2  A    between atoms: _3  and  _12
REMARK    3  A    between atoms: _4  and  _14
REMARK    4  A    between atoms: _6  and  _24
REMARK    5  A    between atoms: _8  and  _9
REMARK    6  A    between atoms: _8  and  _24
REMARK    7  A    between atoms: _11  and  _12
REMARK    8  A    between atoms: _14  and  _15
REMARK    9  A    between atoms: _20  and  _40
REMARK   10  A    between atoms: _22  and  _28
REMARK   11  A    between atoms: _23  and  _27
REMARK   12  A    between atoms: _27  and  _28
REMARK   13  A    between atoms: _30  and  _31
REMARK   14  A    between atoms: _32  and  _33
REMARK   15  A    between atoms: _34  and  _36
REMARK   16  A    between atoms: _36  and  _37
REMARK   17  A    between atoms: _36  and  _38
REMARK   18  A    between atoms: _38  and  _39
REMARK   19  A    between atoms: _38  and  _40
REMARK   20  A    between atoms: _41  and  _43
REMARK                            x       y       z     vdW  Elec       q    Type
REMARK                         _______ _______ _______ _____ _____    ______ ____
ROOT
ATOM      1  C   UNL     1      -6.180  12.146  19.520  0.00  0.00    +0.401 C 
ATOM      2  O   UNL     1      -6.740  12.974  20.242  0.00  0.00    -0.226 OA
ATOM      3  N   UNL     1      -4.928  11.724  19.702  0.00  0.00    -0.279 N 
ATOM      4  H   UNL     1      -4.559  11.034  19.062  0.00  0.00    +0.152 HD
ENDROOT
BRANCH   1   5
ATOM      5  O   UNL     1      -6.898  11.587  18.418  0.00  0.00    -0.444 OA
BRANCH   5   6
ATOM      6  C   UNL     1      -6.118  10.552  17.814  0.00  0.00    +0.292 C 
BRANCH   6   8
ATOM      7  N   UNL     1      -4.035  10.846  16.508  0.00  0.00    -0.131 NA
ATOM      8  C   UNL     1      -5.376  11.079  16.650  0.00  0.00    +0.120 A 
ATOM      9  C   UNL     1      -5.818  11.829  15.583  0.00  0.00    +0.137 A 
ATOM     10  N   UNL     1      -4.695  12.026  14.835  0.00  0.00    -0.250 N 
ATOM     11  N   UNL     1      -3.627  11.430  15.388  0.00  0.00    -0.065 NA
BRANCH  10  12
ATOM     12  C   UNL     1      -4.564  12.767  13.597  0.00  0.00    +0.164 C 
BRANCH  12  13
ATOM     13  C   UNL     1      -3.272  12.416  12.876  0.00  0.00    +0.129 C 
BRANCH  13  14
ATOM     14  N   UNL     1      -2.121  13.224  13.260  0.00  0.00    -0.298 N 
ATOM     15  H   UNL     1      -1.794  13.234  14.215  0.00  0.00    +0.150 HD
ATOM     16  C   UNL     1      -1.763  14.270  12.451  0.00  0.00    +0.300 C 
ATOM     17  O   UNL     1      -2.306  14.492  11.372  0.00  0.00    -0.253 OA
ATOM     18  N   UNL     1      -0.737  15.025  12.930  0.00  0.00    -0.292 N 
ATOM     19  H   UNL     1      -0.319  14.868  13.836  0.00  0.00    +0.151 HD
BRANCH  18  20
ATOM     20  C   UNL     1      -0.281  16.149  12.146  0.00  0.00    +0.180 C 
BRANCH  20  21
ATOM     21  C   UNL     1       0.981  15.881  11.413  0.00  0.00    +0.122 A 
ATOM     22  O   UNL     1       1.157  14.664  10.815  0.00  0.00    -0.466 OA
ATOM     23  C   UNL     1       2.383  14.692  10.222  0.00  0.00    +0.195 A 
ATOM     24  C   UNL     1       2.998  15.904  10.431  0.00  0.00    +0.041 A 
ATOM     25  C   UNL     1       2.095  16.673  11.201  0.00  0.00    +0.046 A 
ENDBRANCH  20  21
ENDBRANCH  18  20
ENDBRANCH  13  14
ENDBRANCH  12  13
ENDBRANCH  10  12
ENDBRANCH   6   8
ENDBRANCH   5   6
ENDBRANCH   1   5
BRANCH   3  26
ATOM     26  C   UNL     1      -4.054  12.206  20.779  0.00  0.00    +0.141 C 
BRANCH  26  27
ATOM     27  C   UNL     1      -4.082  11.280  21.991  0.00  0.00    +0.163 C 
BRANCH  27  28
ATOM     28  O   UNL     1      -3.860   9.922  21.577  0.00  0.00    -0.388 OA
ATOM     29  H   UNL     1      -3.360   9.915  20.757  0.00  0.00    +0.210 HD
ENDBRANCH  27  28
BRANCH  27  30
ATOM     30  C   UNL     1      -3.016  11.728  23.005  0.00  0.00    +0.175 C 
BRANCH  30  31
ATOM     31  C   UNL     1      -3.306  11.203  24.419  0.00  0.00    +0.176 C 
ATOM     32  O   UNL     1      -3.073   9.768  24.419  0.00  0.00    -0.332 OA
ATOM     33  C   UNL     1      -3.200   9.106  25.721  0.00  0.00    +0.277 C 
ATOM     34  C   UNL     1      -4.580   9.413  26.353  0.00  0.00    +0.110 C 
ATOM     35  C   UNL     1      -4.886  10.926  26.345  0.00  0.00    +0.143 C 
ATOM     36  C   UNL     1      -4.720  11.512  24.943  0.00  0.00    +0.133 C 
BRANCH  36  37
ATOM     37  N   UNL     1      -4.930  12.968  24.965  0.00  0.00    -0.308 N 
ATOM     38  H   UNL     1      -4.231  13.538  25.421  0.00  0.00    +0.149 HD
ATOM     39  C   UNL     1      -5.982  13.586  24.422  0.00  0.00    +0.210 C 
ATOM     40  C   UNL     1      -7.042  12.688  23.757  0.00  0.00    +0.109 C 
ATOM     41  O   UNL     1      -6.124  14.809  24.443  0.00  0.00    -0.276 OA
ENDBRANCH  36  37
BRANCH  33  42
ATOM     42  C   UNL     1      -2.081   9.565  26.679  0.00  0.00    +0.414 C 
ATOM     43  O   UNL     1      -2.304   9.678  27.884  0.00  0.00    -0.240 OA
ATOM     44  O   UNL     1      -0.956   9.822  26.248  0.00  0.00    -0.240 OA
ENDBRANCH  33  42
BRANCH  35  45
ATOM     45  O   UNL     1      -6.223  11.149  26.794  0.00  0.00    -0.390 OA
ATOM     46  H   UNL     1      -6.360  10.697  27.630  0.00  0.00    +0.210 HD
ENDBRANCH  35  45
BRANCH  33  47
ATOM     47  O   UNL     1      -3.103   7.674  25.508  0.00  0.00    -0.343 OA
ATOM     48  C   UNL     1      -3.815   6.861  26.475  0.00  0.00    +0.198 C 
ENDBRANCH  33  47
ENDBRANCH  30  31
BRANCH  30  49
ATOM     49  O   UNL     1      -2.917  13.166  23.019  0.00  0.00    -0.387 OA
ATOM     50  H   UNL     1      -2.309  13.452  22.333  0.00  0.00    +0.210 HD
ENDBRANCH  30  49
ENDBRANCH  27  30
ENDBRANCH  26  27
ENDBRANCH   3  26
TORSDOF 18
