REMARK VINA RESULT:    -5.402      2.221      3.435
REMARK INTER + INTRA:         -14.574
REMARK INTER:                 -10.186
REMARK INTRA:                  -4.388
REMARK UNBOUND:                -3.487
REMARK  Name = lig_assembled_90.pdb
REMARK  22 active torsions:
REMARK  status: ('A' for Active; 'I' for Inactive)
REMARK    1  A    between atoms: _2  and  _13
REMARK    2  A    between atoms: _3  and  _15
REMARK    3  A    between atoms: _4  and  _17
REMARK    4  A    between atoms: _8  and  _28
REMARK    5  A    between atoms: _10  and  _11
REMARK    6  A    between atoms: _10  and  _28
REMARK    7  A    between atoms: _13  and  _14
REMARK    8  A    between atoms: _15  and  _16
REMARK    9  A    between atoms: _16  and  _17
REMARK   10  A    between atoms: _16  and  _22
REMARK   11  A    between atoms: _24  and  _44
REMARK   12  A    between atoms: _26  and  _32
REMARK   13  A    between atoms: _27  and  _31
REMARK   14  A    between atoms: _31  and  _32
REMARK   15  A    between atoms: _34  and  _35
REMARK   16  A    between atoms: _36  and  _37
REMARK   17  A    between atoms: _38  and  _40
REMARK   18  A    between atoms: _40  and  _41
REMARK   19  A    between atoms: _40  and  _42
REMARK   20  A    between atoms: _42  and  _43
REMARK   21  A    between atoms: _42  and  _44
REMARK   22  A    between atoms: _45  and  _47
REMARK                            x       y       z     vdW  Elec       q    Type
REMARK                         _______ _______ _______ _____ _____    ______ ____
ROOT
ATOM      1  C   UNL     1      -3.273   6.755  24.820  0.00  0.00    +0.401 C 
ATOM      2  O   UNL     1      -2.968   6.248  23.738  0.00  0.00    -0.226 OA
ATOM      3  N   UNL     1      -4.366   7.492  25.018  0.00  0.00    -0.279 N 
ATOM      4  H   UNL     1      -4.535   7.856  25.945  0.00  0.00    +0.152 HD
ENDROOT
BRANCH   3   5
ATOM      5  C   UNL     1      -5.339   7.804  23.963  0.00  0.00    +0.141 C 
BRANCH   5   6
ATOM      6  C   UNL     1      -5.533   9.307  23.795  0.00  0.00    +0.163 C 
BRANCH   6   7
ATOM      7  O   UNL     1      -5.954   9.891  25.039  0.00  0.00    -0.388 OA
ATOM      8  H   UNL     1      -5.379   9.587  25.746  0.00  0.00    +0.210 HD
ENDBRANCH   6   7
BRANCH   6   9
ATOM      9  C   UNL     1      -4.220   9.943  23.305  0.00  0.00    +0.175 C 
BRANCH   9  10
ATOM     10  C   UNL     1      -4.453  11.305  22.636  0.00  0.00    +0.176 C 
ATOM     11  O   UNL     1      -4.916  12.231  23.657  0.00  0.00    -0.332 OA
ATOM     12  C   UNL     1      -5.091  13.620  23.221  0.00  0.00    +0.277 C 
ATOM     13  C   UNL     1      -6.028  13.687  21.990  0.00  0.00    +0.110 C 
ATOM     14  C   UNL     1      -5.594  12.696  20.889  0.00  0.00    +0.143 C 
ATOM     15  C   UNL     1      -5.439  11.283  21.453  0.00  0.00    +0.133 C 
BRANCH  15  16
ATOM     16  N   UNL     1      -4.941  10.366  20.416  0.00  0.00    -0.308 N 
ATOM     17  H   UNL     1      -3.994  10.494  20.088  0.00  0.00    +0.149 HD
ATOM     18  C   UNL     1      -5.658   9.375  19.880  0.00  0.00    +0.210 C 
ATOM     19  C   UNL     1      -7.106   9.222  20.382  0.00  0.00    +0.109 C 
ATOM     20  O   UNL     1      -5.210   8.613  19.023  0.00  0.00    -0.276 OA
ENDBRANCH  15  16
BRANCH  12  21
ATOM     21  C   UNL     1      -3.732  14.259  22.869  0.00  0.00    +0.414 C 
ATOM     22  O   UNL     1      -3.678  15.221  22.104  0.00  0.00    -0.240 OA
ATOM     23  O   UNL     1      -2.689  13.812  23.350  0.00  0.00    -0.240 OA
ENDBRANCH  12  21
BRANCH  14  24
ATOM     24  O   UNL     1      -6.566  12.681  19.843  0.00  0.00    -0.390 OA
ATOM     25  H   UNL     1      -6.778  13.583  19.590  0.00  0.00    +0.210 HD
ENDBRANCH  14  24
BRANCH  12  26
ATOM     26  O   UNL     1      -5.710  14.357  24.307  0.00  0.00    -0.343 OA
ATOM     27  C   UNL     1      -6.956  13.797  24.794  0.00  0.00    +0.198 C 
ENDBRANCH  12  26
ENDBRANCH   9  10
BRANCH   9  28
ATOM     28  O   UNL     1      -3.546   9.051  22.395  0.00  0.00    -0.387 OA
ATOM     29  H   UNL     1      -3.026   9.563  21.771  0.00  0.00    +0.210 HD
ENDBRANCH   9  28
ENDBRANCH   6   9
ENDBRANCH   5   6
ENDBRANCH   3   5
BRANCH   1  30
ATOM     30  O   UNL     1      -2.418   6.549  25.948  0.00  0.00    -0.444 OA
BRANCH  30  31
ATOM     31  C   UNL     1      -2.893   5.437  26.711  0.00  0.00    +0.292 C 
BRANCH  31  33
ATOM     32  N   UNL     1      -1.724   6.377  28.687  0.00  0.00    -0.131 NA
ATOM     33  C   UNL     1      -2.810   5.730  28.155  0.00  0.00    +0.120 A 
ATOM     34  C   UNL     1      -3.701   5.447  29.166  0.00  0.00    +0.137 A 
ATOM     35  N   UNL     1      -3.113   5.964  30.280  0.00  0.00    -0.242 N 
ATOM     36  N   UNL     1      -1.916   6.506  29.993  0.00  0.00    -0.065 NA
BRANCH  35  37
ATOM     37  C   UNL     1      -3.567   5.890  31.647  0.00  0.00    +0.240 C 
BRANCH  37  38
ATOM     38  C   UNL     1      -3.429   7.222  32.347  0.00  0.00    +0.235 C 
ATOM     39  O   UNL     1      -3.027   7.324  33.506  0.00  0.00    -0.274 OA
ATOM     40  N   UNL     1      -3.731   8.328  31.575  0.00  0.00    -0.311 N 
ATOM     41  H   UNL     1      -4.305   8.200  30.745  0.00  0.00    +0.149 HD
BRANCH  40  42
ATOM     42  C   UNL     1      -3.718   9.662  32.158  0.00  0.00    +0.137 C 
BRANCH  42  43
ATOM     43  C   UNL     1      -3.170  10.698  31.165  0.00  0.00    +0.151 C 
BRANCH  43  44
ATOM     44  O   UNL     1      -2.012  11.316  31.740  0.00  0.00    -0.388 OA
ATOM     45  H   UNL     1      -1.512  10.644  32.246  0.00  0.00    +0.210 HD
ENDBRANCH  43  44
BRANCH  43  46
ATOM     46  C   UNL     1      -2.847  10.064  29.806  0.00  0.00    +0.162 C 
BRANCH  46  47
ATOM     47  N   UNL     1      -3.434  10.802  28.695  0.00  0.00    -0.269 N 
ATOM     48  C   UNL     1      -4.555  11.592  28.827  0.00  0.00    +0.113 A 
ATOM     49  C   UNL     1      -4.821  12.076  27.569  0.00  0.00    +0.137 A 
ATOM     50  N   UNL     1      -3.902  11.606  26.666  0.00  0.00    -0.172 NA
ATOM     51  C   UNL     1      -3.073  10.853  27.371  0.00  0.00    +0.450 A 
ATOM     52  N   UNL     1      -1.946  10.179  26.773  0.00  0.00    +0.120 N 
ATOM     53  O   UNL     1      -1.164   9.585  27.528  0.00  0.00    +0.045 OA
ATOM     54  O   UNL     1      -1.842  10.230  25.541  0.00  0.00    -0.573 OA
ENDBRANCH  46  47
ENDBRANCH  43  46
ENDBRANCH  42  43
ENDBRANCH  40  42
ENDBRANCH  37  38
ENDBRANCH  35  37
ENDBRANCH  31  33
ENDBRANCH  30  31
ENDBRANCH   1  30
TORSDOF 20
