REMARK VINA RESULT:    -5.086      2.405      4.436
REMARK INTER + INTRA:         -11.789
REMARK INTER:                  -9.024
REMARK INTRA:                  -2.764
REMARK UNBOUND:                -2.541
REMARK  Name = lig_assembled_23.pdb
REMARK  18 active torsions:
REMARK  status: ('A' for Active; 'I' for Inactive)
REMARK    1  A    between atoms: _2  and  _10
REMARK    2  A    between atoms: _3  and  _41
REMARK    3  A    between atoms: _5  and  _21
REMARK    4  A    between atoms: _7  and  _8
REMARK    5  A    between atoms: _7  and  _21
REMARK    6  A    between atoms: _12  and  _41
REMARK    7  A    between atoms: _17  and  _37
REMARK    8  A    between atoms: _19  and  _25
REMARK    9  A    between atoms: _20  and  _24
REMARK   10  A    between atoms: _24  and  _25
REMARK   11  A    between atoms: _27  and  _28
REMARK   12  A    between atoms: _29  and  _30
REMARK   13  A    between atoms: _31  and  _33
REMARK   14  A    between atoms: _33  and  _34
REMARK   15  A    between atoms: _33  and  _35
REMARK   16  A    between atoms: _35  and  _36
REMARK   17  A    between atoms: _35  and  _37
REMARK   18  A    between atoms: _38  and  _40
REMARK                            x       y       z     vdW  Elec       q    Type
REMARK                         _______ _______ _______ _____ _____    ______ ____
ROOT
ATOM      1  C   UNL     1      -8.246  11.418  22.821  0.00  0.00    +0.141 C 
ENDROOT
BRANCH   1   4
ATOM      2  C   UNL     1      -7.820  12.724  20.766  0.00  0.00    +0.401 C 
ATOM      3  O   UNL     1      -8.037  13.813  21.301  0.00  0.00    -0.226 OA
ATOM      4  N   UNL     1      -7.901  11.553  21.400  0.00  0.00    -0.279 N 
ATOM      5  H   UNL     1      -7.713  10.711  20.873  0.00  0.00    +0.152 HD
BRANCH   2   6
ATOM      6  O   UNL     1      -7.462  12.688  19.382  0.00  0.00    -0.444 OA
BRANCH   6   7
ATOM      7  C   UNL     1      -7.866  11.439  18.816  0.00  0.00    +0.292 C 
BRANCH   7   9
ATOM      8  N   UNL     1      -5.864  10.038  19.194  0.00  0.00    -0.131 NA
ATOM      9  C   UNL     1      -6.691  10.694  18.329  0.00  0.00    +0.121 A 
ATOM     10  C   UNL     1      -6.227  10.519  17.044  0.00  0.00    +0.143 A 
ATOM     11  N   UNL     1      -5.107   9.731  17.175  0.00  0.00    -0.220 N 
ATOM     12  N   UNL     1      -4.903   9.458  18.488  0.00  0.00    -0.060 NA
BRANCH  11  13
ATOM     13  C   UNL     1      -4.237   9.243  16.166  0.00  0.00    +0.069 A 
ATOM     14  C   UNL     1      -4.069   9.980  14.985  0.00  0.00    +0.056 A 
ATOM     15  C   UNL     1      -3.240   9.484  13.973  0.00  0.00    +0.107 A 
ATOM     16  C   UNL     1      -2.556   8.278  14.133  0.00  0.00    +0.028 A 
ATOM     17  C   UNL     1      -2.712   7.553  15.314  0.00  0.00    +0.004 A 
ATOM     18  C   UNL     1      -3.553   8.029  16.327  0.00  0.00    +0.028 A 
BRANCH  15  19
ATOM     19  S   UNL     1      -3.084  10.398  12.468  0.00  0.00    +0.056 S 
ATOM     20  O   UNL     1      -4.360  10.998  12.155  0.00  0.00    -0.153 OA
ATOM     21  O   UNL     1      -1.851  11.150  12.492  0.00  0.00    -0.153 OA
BRANCH  19  22
ATOM     22  N   UNL     1      -2.839   9.176  11.343  0.00  0.00    -0.204 NA
ATOM     23  H   UNL     1      -2.659   8.293  11.819  0.00  0.00    +0.144 HD
ATOM     24  H   UNL     1      -2.108   9.450  10.684  0.00  0.00    +0.144 HD
ENDBRANCH  19  22
ENDBRANCH  15  19
ENDBRANCH  11  13
ENDBRANCH   7   9
ENDBRANCH   6   7
ENDBRANCH   2   6
ENDBRANCH   1   4
BRANCH   1  25
ATOM     25  C   UNL     1      -7.022  11.560  23.719  0.00  0.00    +0.163 C 
BRANCH  25  26
ATOM     26  O   UNL     1      -7.430  11.885  25.058  0.00  0.00    -0.388 OA
ATOM     27  H   UNL     1      -8.389  11.871  25.113  0.00  0.00    +0.210 HD
ENDBRANCH  25  26
BRANCH  25  28
ATOM     28  C   UNL     1      -6.211  10.253  23.693  0.00  0.00    +0.175 C 
BRANCH  28  29
ATOM     29  C   UNL     1      -4.831  10.416  24.349  0.00  0.00    +0.176 C 
ATOM     30  O   UNL     1      -5.017  10.401  25.791  0.00  0.00    -0.332 OA
ATOM     31  C   UNL     1      -3.788  10.440  26.589  0.00  0.00    +0.277 C 
ATOM     32  C   UNL     1      -2.919  11.657  26.185  0.00  0.00    +0.110 C 
ATOM     33  C   UNL     1      -2.720  11.733  24.657  0.00  0.00    +0.143 C 
ATOM     34  C   UNL     1      -4.062  11.681  23.926  0.00  0.00    +0.133 C 
BRANCH  34  35
ATOM     35  N   UNL     1      -3.855  11.667  22.469  0.00  0.00    -0.308 N 
ATOM     36  H   UNL     1      -3.488  10.822  22.053  0.00  0.00    +0.149 HD
ATOM     37  C   UNL     1      -4.121  12.696  21.661  0.00  0.00    +0.210 C 
ATOM     38  C   UNL     1      -4.656  13.977  22.328  0.00  0.00    +0.109 C 
ATOM     39  O   UNL     1      -3.952  12.650  20.442  0.00  0.00    -0.276 OA
ENDBRANCH  34  35
BRANCH  31  40
ATOM     40  C   UNL     1      -2.975   9.142  26.404  0.00  0.00    +0.414 C 
ATOM     41  O   UNL     1      -1.751   9.189  26.284  0.00  0.00    -0.240 OA
ATOM     42  O   UNL     1      -3.542   8.049  26.375  0.00  0.00    -0.240 OA
ENDBRANCH  31  40
BRANCH  33  43
ATOM     43  O   UNL     1      -2.046  12.945  24.318  0.00  0.00    -0.390 OA
ATOM     44  H   UNL     1      -2.662  13.680  24.370  0.00  0.00    +0.210 HD
ENDBRANCH  33  43
BRANCH  31  45
ATOM     45  O   UNL     1      -4.162  10.588  27.983  0.00  0.00    -0.343 OA
ATOM     46  C   UNL     1      -3.758  11.838  28.596  0.00  0.00    +0.198 C 
ENDBRANCH  31  45
ENDBRANCH  28  29
BRANCH  28  47
ATOM     47  O   UNL     1      -6.064   9.786  22.337  0.00  0.00    -0.387 OA
ATOM     48  H   UNL     1      -5.231   9.317  22.248  0.00  0.00    +0.210 HD
ENDBRANCH  28  47
ENDBRANCH  25  28
ENDBRANCH   1  25
TORSDOF 16
