REMARK VINA RESULT:    -4.121      2.089      6.270
REMARK INTER + INTRA:         -11.000
REMARK INTER:                  -6.872
REMARK INTRA:                  -4.128
REMARK UNBOUND:                -3.505
REMARK  Name = lig_assembled_22.pdb
REMARK  20 active torsions:
REMARK  status: ('A' for Active; 'I' for Inactive)
REMARK    1  A    between atoms: _2  and  _9
REMARK    2  A    between atoms: _4  and  _18
REMARK    3  A    between atoms: _5  and  _9
REMARK    4  A    between atoms: _5  and  _12
REMARK    5  A    between atoms: _6  and  _7
REMARK    6  A    between atoms: _6  and  _18
REMARK    7  A    between atoms: _9  and  _10
REMARK    8  A    between atoms: _9  and  _11
REMARK    9  A    between atoms: _14  and  _34
REMARK   10  A    between atoms: _16  and  _22
REMARK   11  A    between atoms: _17  and  _21
REMARK   12  A    between atoms: _21  and  _22
REMARK   13  A    between atoms: _24  and  _25
REMARK   14  A    between atoms: _26  and  _27
REMARK   15  A    between atoms: _28  and  _30
REMARK   16  A    between atoms: _30  and  _31
REMARK   17  A    between atoms: _30  and  _32
REMARK   18  A    between atoms: _32  and  _33
REMARK   19  A    between atoms: _32  and  _34
REMARK   20  A    between atoms: _35  and  _37
REMARK                            x       y       z     vdW  Elec       q    Type
REMARK                         _______ _______ _______ _____ _____    ______ ____
ROOT
ATOM      1  C   UNL     1      -3.435  12.027  26.829  0.00  0.00    +0.163 C 
ENDROOT
BRANCH   1   2
ATOM      2  O   UNL     1      -2.945  10.719  27.164  0.00  0.00    -0.388 OA
ATOM      3  H   UNL     1      -3.628  10.231  27.632  0.00  0.00    +0.210 HD
ENDBRANCH   1   2
BRANCH   1   4
ATOM      4  C   UNL     1      -4.862  12.197  27.339  0.00  0.00    +0.141 C 
BRANCH   4   7
ATOM      5  C   UNL     1      -5.757  11.146  29.389  0.00  0.00    +0.401 C 
ATOM      6  O   UNL     1      -5.855  12.210  30.004  0.00  0.00    -0.226 OA
ATOM      7  N   UNL     1      -5.297  11.046  28.141  0.00  0.00    -0.279 N 
ATOM      8  H   UNL     1      -5.246  10.128  27.723  0.00  0.00    +0.152 HD
BRANCH   5   9
ATOM      9  O   UNL     1      -6.150   9.932  30.033  0.00  0.00    -0.444 OA
BRANCH   9  10
ATOM     10  C   UNL     1      -5.050   9.410  30.782  0.00  0.00    +0.292 C 
BRANCH  10  12
ATOM     11  N   UNL     1      -2.850   9.038  29.724  0.00  0.00    -0.131 NA
ATOM     12  C   UNL     1      -4.147   8.647  29.900  0.00  0.00    +0.120 A 
ATOM     13  C   UNL     1      -4.380   7.514  29.151  0.00  0.00    +0.138 A 
ATOM     14  N   UNL     1      -3.183   7.264  28.539  0.00  0.00    -0.235 N 
ATOM     15  N   UNL     1      -2.271   8.191  28.889  0.00  0.00    -0.064 NA
BRANCH  14  16
ATOM     16  C   UNL     1      -2.823   6.198  27.602  0.00  0.00    +0.155 C 
ATOM     17  C   UNL     1      -4.066   5.492  27.018  0.00  0.00    +0.048 C 
ATOM     18  C   UNL     1      -1.975   5.151  28.348  0.00  0.00    +0.048 C 
BRANCH  16  19
ATOM     19  C   UNL     1      -2.022   6.768  26.429  0.00  0.00    +0.332 C 
ATOM     20  O   UNL     1      -1.222   6.121  25.763  0.00  0.00    -0.248 OA
BRANCH  19  21
ATOM     21  O   UNL     1      -2.251   8.074  26.151  0.00  0.00    -0.479 OA
ATOM     22  H   UNL     1      -2.767   8.576  26.812  0.00  0.00    +0.295 HD
ENDBRANCH  19  21
ENDBRANCH  16  19
ENDBRANCH  14  16
ENDBRANCH  10  12
ENDBRANCH   9  10
ENDBRANCH   5   9
ENDBRANCH   4   7
ENDBRANCH   1   4
BRANCH   1  23
ATOM     23  C   UNL     1      -3.403  12.253  25.307  0.00  0.00    +0.175 C 
BRANCH  23  24
ATOM     24  C   UNL     1      -4.390  11.339  24.567  0.00  0.00    +0.176 C 
ATOM     25  O   UNL     1      -3.814  10.004  24.517  0.00  0.00    -0.332 OA
ATOM     26  C   UNL     1      -4.669   8.965  23.935  0.00  0.00    +0.277 C 
ATOM     27  C   UNL     1      -5.142   9.384  22.521  0.00  0.00    +0.110 C 
ATOM     28  C   UNL     1      -5.734  10.809  22.517  0.00  0.00    +0.143 C 
ATOM     29  C   UNL     1      -4.763  11.808  23.148  0.00  0.00    +0.133 C 
BRANCH  29  30
ATOM     30  N   UNL     1      -5.373  13.145  23.217  0.00  0.00    -0.308 N 
ATOM     31  H   UNL     1      -6.233  13.245  23.738  0.00  0.00    +0.149 HD
ATOM     32  C   UNL     1      -4.865  14.235  22.637  0.00  0.00    +0.210 C 
ATOM     33  C   UNL     1      -3.567  14.045  21.828  0.00  0.00    +0.109 C 
ATOM     34  O   UNL     1      -5.390  15.346  22.724  0.00  0.00    -0.276 OA
ENDBRANCH  29  30
BRANCH  26  35
ATOM     35  C   UNL     1      -5.896   8.701  24.832  0.00  0.00    +0.414 C 
ATOM     36  O   UNL     1      -7.017   8.596  24.335  0.00  0.00    -0.240 OA
ATOM     37  O   UNL     1      -5.765   8.591  26.052  0.00  0.00    -0.240 OA
ENDBRANCH  26  35
BRANCH  26  38
ATOM     38  O   UNL     1      -3.882   7.753  23.814  0.00  0.00    -0.343 OA
ATOM     39  C   UNL     1      -4.354   6.814  22.815  0.00  0.00    +0.198 C 
ENDBRANCH  26  38
BRANCH  28  40
ATOM     40  O   UNL     1      -6.016  11.209  21.176  0.00  0.00    -0.390 OA
ATOM     41  H   UNL     1      -6.391  10.470  20.692  0.00  0.00    +0.210 HD
ENDBRANCH  28  40
ENDBRANCH  23  24
BRANCH  23  42
ATOM     42  O   UNL     1      -2.067  12.053  24.803  0.00  0.00    -0.387 OA
ATOM     43  H   UNL     1      -1.756  12.862  24.390  0.00  0.00    +0.210 HD
ENDBRANCH  23  42
ENDBRANCH   1  23
TORSDOF 16
