REMARK VINA RESULT:    -4.541      2.349      7.496
REMARK INTER + INTRA:         -12.234
REMARK INTER:                  -8.733
REMARK INTRA:                  -3.502
REMARK UNBOUND:                -3.181
REMARK  Name = lig_assembled_76.pdb
REMARK  21 active torsions:
REMARK  status: ('A' for Active; 'I' for Inactive)
REMARK    1  A    between atoms: _2  and  _9
REMARK    2  A    between atoms: _4  and  _23
REMARK    3  A    between atoms: _6  and  _7
REMARK    4  A    between atoms: _6  and  _23
REMARK    5  A    between atoms: _9  and  _10
REMARK    6  A    between atoms: _10  and  _11
REMARK    7  A    between atoms: _10  and  _18
REMARK    8  A    between atoms: _11  and  _12
REMARK    9  A    between atoms: _12  and  _13
REMARK   10  A    between atoms: _19  and  _39
REMARK   11  A    between atoms: _21  and  _27
REMARK   12  A    between atoms: _22  and  _26
REMARK   13  A    between atoms: _26  and  _27
REMARK   14  A    between atoms: _29  and  _30
REMARK   15  A    between atoms: _31  and  _32
REMARK   16  A    between atoms: _33  and  _35
REMARK   17  A    between atoms: _35  and  _36
REMARK   18  A    between atoms: _35  and  _37
REMARK   19  A    between atoms: _37  and  _38
REMARK   20  A    between atoms: _37  and  _39
REMARK   21  A    between atoms: _40  and  _42
REMARK                            x       y       z     vdW  Elec       q    Type
REMARK                         _______ _______ _______ _____ _____    ______ ____
ROOT
ATOM      1  C   UNL     1      -3.027   8.782  28.850  0.00  0.00    +0.141 C 
ENDROOT
BRANCH   1   4
ATOM      2  C   UNL     1      -2.708   8.440  26.424  0.00  0.00    +0.401 C 
ATOM      3  O   UNL     1      -1.694   9.140  26.363  0.00  0.00    -0.226 OA
ATOM      4  N   UNL     1      -3.398   8.223  27.544  0.00  0.00    -0.279 N 
ATOM      5  H   UNL     1      -4.222   7.642  27.492  0.00  0.00    +0.152 HD
BRANCH   2   6
ATOM      6  O   UNL     1      -3.194   7.816  25.232  0.00  0.00    -0.444 OA
BRANCH   6   7
ATOM      7  C   UNL     1      -4.598   8.054  25.108  0.00  0.00    +0.292 C 
BRANCH   7   9
ATOM      8  N   UNL     1      -4.191   7.905  22.666  0.00  0.00    -0.131 NA
ATOM      9  C   UNL     1      -4.944   8.373  23.712  0.00  0.00    +0.120 A 
ATOM     10  C   UNL     1      -5.977   9.138  23.217  0.00  0.00    +0.137 A 
ATOM     11  N   UNL     1      -5.799   9.091  21.870  0.00  0.00    -0.249 N 
ATOM     12  N   UNL     1      -4.722   8.360  21.539  0.00  0.00    -0.065 NA
BRANCH  11  13
ATOM     13  C   UNL     1      -6.528   9.819  20.856  0.00  0.00    +0.176 C 
BRANCH  13  14
ATOM     14  C   UNL     1      -5.636  10.291  19.702  0.00  0.00    +0.136 C 
BRANCH  14  15
ATOM     15  O   UNL     1      -6.404  10.397  18.495  0.00  0.00    -0.390 OA
ATOM     16  H   UNL     1      -6.785   9.527  18.283  0.00  0.00    +0.210 HD
ENDBRANCH  14  15
BRANCH  14  17
ATOM     17  C   UNL     1      -5.009  11.668  19.971  0.00  0.00    +0.038 C 
BRANCH  17  18
ATOM     18  C   UNL     1      -3.559  11.594  20.449  0.00  0.00    +0.038 C 
BRANCH  18  19
ATOM     19  C   UNL     1      -3.402  12.091  21.863  0.00  0.00    -0.047 A 
ATOM     20  C   UNL     1      -2.937  11.230  22.867  0.00  0.00    +0.003 A 
ATOM     21  C   UNL     1      -2.773  11.692  24.174  0.00  0.00    +0.000 A 
ATOM     22  C   UNL     1      -3.076  13.014  24.489  0.00  0.00    +0.000 A 
ATOM     23  C   UNL     1      -3.549  13.875  23.498  0.00  0.00    +0.000 A 
ATOM     24  C   UNL     1      -3.715  13.415  22.191  0.00  0.00    +0.003 A 
ENDBRANCH  18  19
ENDBRANCH  17  18
ENDBRANCH  14  17
ENDBRANCH  13  14
ENDBRANCH  11  13
ENDBRANCH   7   9
ENDBRANCH   6   7
ENDBRANCH   2   6
ENDBRANCH   1   4
BRANCH   1  25
ATOM     25  C   UNL     1      -4.135   9.654  29.431  0.00  0.00    +0.163 C 
BRANCH  25  26
ATOM     26  O   UNL     1      -4.313   9.358  30.826  0.00  0.00    -0.388 OA
ATOM     27  H   UNL     1      -5.239   9.457  31.059  0.00  0.00    +0.210 HD
ENDBRANCH  25  26
BRANCH  25  28
ATOM     28  C   UNL     1      -3.783  11.138  29.224  0.00  0.00    +0.175 C 
BRANCH  28  29
ATOM     29  C   UNL     1      -5.033  12.003  29.004  0.00  0.00    +0.176 C 
ATOM     30  O   UNL     1      -5.214  12.171  27.571  0.00  0.00    -0.332 OA
ATOM     31  C   UNL     1      -6.427  12.887  27.165  0.00  0.00    +0.277 C 
ATOM     32  C   UNL     1      -6.502  14.265  27.867  0.00  0.00    +0.110 C 
ATOM     33  C   UNL     1      -6.284  14.141  29.390  0.00  0.00    +0.143 C 
ATOM     34  C   UNL     1      -4.996  13.377  29.699  0.00  0.00    +0.133 C 
BRANCH  34  35
ATOM     35  N   UNL     1      -4.844  13.189  31.150  0.00  0.00    -0.308 N 
ATOM     36  H   UNL     1      -5.596  12.734  31.648  0.00  0.00    +0.149 HD
ATOM     37  C   UNL     1      -3.778  13.581  31.852  0.00  0.00    +0.210 C 
ATOM     38  C   UNL     1      -2.660  14.295  31.068  0.00  0.00    +0.109 C 
ATOM     39  O   UNL     1      -3.671  13.398  33.065  0.00  0.00    -0.276 OA
ENDBRANCH  34  35
BRANCH  31  40
ATOM     40  C   UNL     1      -7.687  12.065  27.505  0.00  0.00    +0.414 C 
ATOM     41  O   UNL     1      -7.677  10.839  27.392  0.00  0.00    -0.240 OA
ATOM     42  O   UNL     1      -8.713  12.626  27.892  0.00  0.00    -0.240 OA
ENDBRANCH  31  40
BRANCH  33  43
ATOM     43  O   UNL     1      -6.211  15.442  29.973  0.00  0.00    -0.390 OA
ATOM     44  H   UNL     1      -6.633  15.431  30.836  0.00  0.00    +0.210 HD
ENDBRANCH  33  43
BRANCH  31  45
ATOM     45  O   UNL     1      -6.359  13.107  25.732  0.00  0.00    -0.343 OA
ATOM     46  C   UNL     1      -6.759  14.431  25.296  0.00  0.00    +0.198 C 
ENDBRANCH  31  45
ENDBRANCH  28  29
BRANCH  28  47
ATOM     47  O   UNL     1      -2.877  11.283  28.113  0.00  0.00    -0.387 OA
ATOM     48  H   UNL     1      -3.073  10.617  27.450  0.00  0.00    +0.210 HD
ENDBRANCH  28  47
ENDBRANCH  25  28
ENDBRANCH   1  25
TORSDOF 19
