REMARK VINA RESULT:    -4.387      5.259     11.123
REMARK INTER + INTRA:         -11.197
REMARK INTER:                  -8.800
REMARK INTRA:                  -2.397
REMARK UNBOUND:                -2.835
REMARK  Name = lig_assembled_13.pdb
REMARK  20 active torsions:
REMARK  status: ('A' for Active; 'I' for Inactive)
REMARK    1  A    between atoms: _2  and  _9
REMARK    2  A    between atoms: _4  and  _18
REMARK    3  A    between atoms: _5  and  _11
REMARK    4  A    between atoms: _6  and  _7
REMARK    5  A    between atoms: _6  and  _18
REMARK    6  A    between atoms: _9  and  _10
REMARK    7  A    between atoms: _10  and  _12
REMARK    8  A    between atoms: _11  and  _12
REMARK    9  A    between atoms: _14  and  _34
REMARK   10  A    between atoms: _16  and  _22
REMARK   11  A    between atoms: _17  and  _21
REMARK   12  A    between atoms: _21  and  _22
REMARK   13  A    between atoms: _24  and  _25
REMARK   14  A    between atoms: _26  and  _27
REMARK   15  A    between atoms: _28  and  _30
REMARK   16  A    between atoms: _30  and  _31
REMARK   17  A    between atoms: _30  and  _32
REMARK   18  A    between atoms: _32  and  _33
REMARK   19  A    between atoms: _32  and  _34
REMARK   20  A    between atoms: _35  and  _37
REMARK                            x       y       z     vdW  Elec       q    Type
REMARK                         _______ _______ _______ _____ _____    ______ ____
ROOT
ATOM      1  C   UNL     1      -3.062  12.144  22.696  0.00  0.00    +0.163 C 
ENDROOT
BRANCH   1   2
ATOM      2  O   UNL     1      -2.924  12.907  23.906  0.00  0.00    -0.388 OA
ATOM      3  H   UNL     1      -3.075  12.337  24.663  0.00  0.00    +0.210 HD
ENDBRANCH   1   2
BRANCH   1   4
ATOM      4  C   UNL     1      -3.746  10.794  22.972  0.00  0.00    +0.175 C 
BRANCH   4   5
ATOM      5  C   UNL     1      -3.805  10.472  24.472  0.00  0.00    +0.176 C 
ATOM      6  O   UNL     1      -3.283   9.128  24.662  0.00  0.00    -0.332 OA
ATOM      7  C   UNL     1      -3.164   8.685  26.055  0.00  0.00    +0.277 C 
ATOM      8  C   UNL     1      -4.522   8.828  26.786  0.00  0.00    +0.110 C 
ATOM      9  C   UNL     1      -5.131  10.232  26.586  0.00  0.00    +0.143 C 
ATOM     10  C   UNL     1      -5.205  10.592  25.102  0.00  0.00    +0.133 C 
BRANCH  10  11
ATOM     11  N   UNL     1      -5.706  11.964  24.929  0.00  0.00    -0.308 N 
ATOM     12  H   UNL     1      -5.227  12.706  25.420  0.00  0.00    +0.149 HD
ATOM     13  C   UNL     1      -6.752  12.293  24.166  0.00  0.00    +0.210 C 
ATOM     14  C   UNL     1      -7.476  11.136  23.452  0.00  0.00    +0.109 C 
ATOM     15  O   UNL     1      -7.140  13.454  24.028  0.00  0.00    -0.276 OA
ENDBRANCH  10  11
BRANCH   7  16
ATOM     16  C   UNL     1      -2.089   9.504  26.799  0.00  0.00    +0.414 C 
ATOM     17  O   UNL     1      -1.042   9.813  26.231  0.00  0.00    -0.240 OA
ATOM     18  O   UNL     1      -2.268   9.855  27.965  0.00  0.00    -0.240 OA
ENDBRANCH   7  16
BRANCH   7  19
ATOM     19  O   UNL     1      -2.793   7.282  26.049  0.00  0.00    -0.343 OA
ATOM     20  C   UNL     1      -3.162   6.547  27.243  0.00  0.00    +0.198 C 
ENDBRANCH   7  19
BRANCH   9  21
ATOM     21  O   UNL     1      -6.444  10.271  27.146  0.00  0.00    -0.390 OA
ATOM     22  H   UNL     1      -6.919  11.029  26.797  0.00  0.00    +0.210 HD
ENDBRANCH   9  21
ENDBRANCH   4   5
BRANCH   4  23
ATOM     23  O   UNL     1      -3.065   9.739  22.264  0.00  0.00    -0.387 OA
ATOM     24  H   UNL     1      -2.498  10.119  21.589  0.00  0.00    +0.210 HD
ENDBRANCH   4  23
ENDBRANCH   1   4
BRANCH   1  25
ATOM     25  C   UNL     1      -3.877  12.929  21.674  0.00  0.00    +0.141 C 
BRANCH  25  28
ATOM     26  C   UNL     1      -5.851  12.354  20.302  0.00  0.00    +0.401 C 
ATOM     27  O   UNL     1      -6.442  13.409  20.541  0.00  0.00    -0.226 OA
ATOM     28  N   UNL     1      -4.651  12.043  20.794  0.00  0.00    -0.279 N 
ATOM     29  H   UNL     1      -4.251  11.149  20.548  0.00  0.00    +0.152 HD
BRANCH  26  30
ATOM     30  O   UNL     1      -6.472  11.387  19.451  0.00  0.00    -0.444 OA
BRANCH  30  31
ATOM     31  C   UNL     1      -5.790  10.136  19.571  0.00  0.00    +0.292 C 
BRANCH  31  33
ATOM     32  N   UNL     1      -4.942   8.380  18.046  0.00  0.00    -0.131 NA
ATOM     33  C   UNL     1      -5.313   9.681  18.253  0.00  0.00    +0.120 A 
ATOM     34  C   UNL     1      -5.150  10.387  17.085  0.00  0.00    +0.137 A 
ATOM     35  N   UNL     1      -4.612   9.476  16.223  0.00  0.00    -0.241 N 
ATOM     36  N   UNL     1      -4.533   8.261  16.789  0.00  0.00    -0.065 NA
BRANCH  35  37
ATOM     37  C   UNL     1      -4.250   9.660  14.836  0.00  0.00    +0.265 C 
BRANCH  37  38
ATOM     38  C   UNL     1      -2.830  10.122  14.681  0.00  0.00    +0.329 C 
ATOM     39  O   UNL     1      -1.843   9.632  15.211  0.00  0.00    -0.249 OA
BRANCH  38  40
ATOM     40  O   UNL     1      -2.814  11.262  13.926  0.00  0.00    -0.464 OA
BRANCH  40  41
ATOM     41  C   UNL     1      -4.060  11.972  13.877  0.00  0.00    +0.229 C 
ATOM     42  C   UNL     1      -3.886  13.271  14.644  0.00  0.00    +0.048 C 
ENDBRANCH  40  41
ENDBRANCH  38  40
ENDBRANCH  37  38
ENDBRANCH  35  37
ENDBRANCH  31  33
ENDBRANCH  30  31
ENDBRANCH  26  30
ENDBRANCH  25  28
ENDBRANCH   1  25
TORSDOF 17
