REMARK VINA RESULT:    -4.759      3.753      6.437
REMARK INTER + INTRA:         -11.271
REMARK INTER:                  -7.615
REMARK INTRA:                  -3.656
REMARK UNBOUND:                -2.756
REMARK  Name = lig_assembled_41.pdb
REMARK  18 active torsions:
REMARK  status: ('A' for Active; 'I' for Inactive)
REMARK    1  A    between atoms: _2  and  _9
REMARK    2  A    between atoms: _4  and  _21
REMARK    3  A    between atoms: _6  and  _7
REMARK    4  A    between atoms: _6  and  _21
REMARK    5  A    between atoms: _10  and  _11
REMARK    6  A    between atoms: _11  and  _12
REMARK    7  A    between atoms: _17  and  _37
REMARK    8  A    between atoms: _19  and  _25
REMARK    9  A    between atoms: _20  and  _24
REMARK   10  A    between atoms: _24  and  _25
REMARK   11  A    between atoms: _27  and  _28
REMARK   12  A    between atoms: _29  and  _30
REMARK   13  A    between atoms: _31  and  _33
REMARK   14  A    between atoms: _33  and  _34
REMARK   15  A    between atoms: _33  and  _35
REMARK   16  A    between atoms: _35  and  _36
REMARK   17  A    between atoms: _35  and  _37
REMARK   18  A    between atoms: _38  and  _40
REMARK                            x       y       z     vdW  Elec       q    Type
REMARK                         _______ _______ _______ _____ _____    ______ ____
ROOT
ATOM      1  C   UNL     1      -2.218  10.283  27.039  0.00  0.00    +0.163 C 
ENDROOT
BRANCH   1   2
ATOM      2  O   UNL     1      -2.519   9.663  25.778  0.00  0.00    -0.388 OA
ATOM      3  H   UNL     1      -3.441   9.817  25.556  0.00  0.00    +0.210 HD
ENDBRANCH   1   2
BRANCH   1   4
ATOM      4  C   UNL     1      -1.820   9.223  28.060  0.00  0.00    +0.141 C 
BRANCH   4   7
ATOM      5  C   UNL     1      -2.864   8.090  29.993  0.00  0.00    +0.401 C 
ATOM      6  O   UNL     1      -2.129   7.102  29.930  0.00  0.00    -0.226 OA
ATOM      7  N   UNL     1      -2.793   9.126  29.155  0.00  0.00    -0.279 N 
ATOM      8  H   UNL     1      -3.446   9.886  29.282  0.00  0.00    +0.152 HD
BRANCH   5   9
ATOM      9  O   UNL     1      -3.862   8.149  31.015  0.00  0.00    -0.444 OA
BRANCH   9  10
ATOM     10  C   UNL     1      -3.242   8.427  32.273  0.00  0.00    +0.292 C 
BRANCH  10  12
ATOM     11  N   UNL     1      -3.638  10.012  34.120  0.00  0.00    -0.131 NA
ATOM     12  C   UNL     1      -3.686   9.734  32.788  0.00  0.00    +0.121 A 
ATOM     13  C   UNL     1      -4.169  10.836  32.116  0.00  0.00    +0.143 A 
ATOM     14  N   UNL     1      -4.508  11.737  33.100  0.00  0.00    -0.219 N 
ATOM     15  N   UNL     1      -4.085  11.246  34.298  0.00  0.00    -0.060 NA
BRANCH  14  16
ATOM     16  C   UNL     1      -5.080  13.038  33.014  0.00  0.00    +0.077 A 
ATOM     17  C   UNL     1      -4.342  14.237  32.922  0.00  0.00    +0.043 A 
ATOM     18  C   UNL     1      -5.039  15.463  32.894  0.00  0.00    +0.013 A 
ATOM     19  C   UNL     1      -6.434  15.507  32.963  0.00  0.00    +0.001 A 
ATOM     20  C   UNL     1      -7.160  14.327  33.027  0.00  0.00    +0.002 A 
ATOM     21  C   UNL     1      -6.492  13.104  33.041  0.00  0.00    +0.028 A 
BRANCH  17  22
ATOM     22  C   UNL     1      -2.875  14.292  32.642  0.00  0.00    +0.162 C 
ATOM     23  O   UNL     1      -2.488  14.422  31.482  0.00  0.00    -0.292 OA
ATOM     24  C   UNL     1      -1.879  14.193  33.772  0.00  0.00    +0.091 C 
ENDBRANCH  17  22
ENDBRANCH  14  16
ENDBRANCH  10  12
ENDBRANCH   9  10
ENDBRANCH   5   9
ENDBRANCH   4   7
ENDBRANCH   1   4
BRANCH   1  25
ATOM     25  C   UNL     1      -3.428  11.075  27.565  0.00  0.00    +0.175 C 
BRANCH  25  26
ATOM     26  C   UNL     1      -4.254  11.691  26.426  0.00  0.00    +0.176 C 
ATOM     27  O   UNL     1      -3.329  12.240  25.448  0.00  0.00    -0.332 OA
ATOM     28  C   UNL     1      -3.940  12.780  24.230  0.00  0.00    +0.277 C 
ATOM     29  C   UNL     1      -5.013  13.839  24.587  0.00  0.00    +0.110 C 
ATOM     30  C   UNL     1      -6.002  13.312  25.648  0.00  0.00    +0.143 C 
ATOM     31  C   UNL     1      -5.258  12.771  26.870  0.00  0.00    +0.133 C 
BRANCH  31  32
ATOM     32  N   UNL     1      -6.206  12.194  27.836  0.00  0.00    -0.308 N 
ATOM     33  H   UNL     1      -6.712  11.363  27.561  0.00  0.00    +0.149 HD
ATOM     34  C   UNL     1      -6.442  12.695  29.051  0.00  0.00    +0.210 C 
ATOM     35  C   UNL     1      -5.675  13.976  29.430  0.00  0.00    +0.109 C 
ATOM     36  O   UNL     1      -7.231  12.181  29.845  0.00  0.00    -0.276 OA
ENDBRANCH  31  32
BRANCH  28  37
ATOM     37  C   UNL     1      -4.586  11.654  23.396  0.00  0.00    +0.414 C 
ATOM     38  O   UNL     1      -4.003  10.580  23.248  0.00  0.00    -0.240 OA
ATOM     39  O   UNL     1      -5.687  11.819  22.870  0.00  0.00    -0.240 OA
ENDBRANCH  28  37
BRANCH  30  40
ATOM     40  O   UNL     1      -6.875  14.365  26.057  0.00  0.00    -0.390 OA
ATOM     41  H   UNL     1      -6.533  15.206  25.743  0.00  0.00    +0.210 HD
ENDBRANCH  30  40
BRANCH  28  42
ATOM     42  O   UNL     1      -2.899  13.428  23.454  0.00  0.00    -0.343 OA
ATOM     43  C   UNL     1      -3.371  14.397  22.484  0.00  0.00    +0.198 C 
ENDBRANCH  28  42
ENDBRANCH  25  26
BRANCH  25  44
ATOM     44  O   UNL     1      -2.990  12.105  28.474  0.00  0.00    -0.387 OA
ATOM     45  H   UNL     1      -2.730  12.883  27.975  0.00  0.00    +0.210 HD
ENDBRANCH  25  44
ENDBRANCH   1  25
TORSDOF 15
