REMARK VINA RESULT:    -5.005      5.076     10.141
REMARK INTER + INTRA:         -10.500
REMARK INTER:                  -8.663
REMARK INTRA:                  -1.837
REMARK UNBOUND:                -1.837
REMARK  Name = lig_assembled_2.pdb
REMARK  16 active torsions:
REMARK  status: ('A' for Active; 'I' for Inactive)
REMARK    1  A    between atoms: _2  and  _9
REMARK    2  A    between atoms: _4  and  _18
REMARK    3  A    between atoms: _6  and  _7
REMARK    4  A    between atoms: _6  and  _18
REMARK    5  A    between atoms: _14  and  _34
REMARK    6  A    between atoms: _16  and  _22
REMARK    7  A    between atoms: _17  and  _21
REMARK    8  A    between atoms: _21  and  _22
REMARK    9  A    between atoms: _24  and  _25
REMARK   10  A    between atoms: _26  and  _27
REMARK   11  A    between atoms: _28  and  _30
REMARK   12  A    between atoms: _30  and  _31
REMARK   13  A    between atoms: _30  and  _32
REMARK   14  A    between atoms: _32  and  _33
REMARK   15  A    between atoms: _32  and  _34
REMARK   16  A    between atoms: _35  and  _37
REMARK                            x       y       z     vdW  Elec       q    Type
REMARK                         _______ _______ _______ _____ _____    ______ ____
ROOT
ATOM      1  C   UNL     1      -4.759  11.531  21.098  0.00  0.00    +0.163 C 
ENDROOT
BRANCH   1   2
ATOM      2  O   UNL     1      -5.109  10.145  20.949  0.00  0.00    -0.388 OA
ATOM      3  H   UNL     1      -5.288   9.957  20.025  0.00  0.00    +0.210 HD
ENDBRANCH   1   2
BRANCH   1   4
ATOM      4  C   UNL     1      -4.671  12.196  19.729  0.00  0.00    +0.141 C 
BRANCH   4   7
ATOM      5  C   UNL     1      -5.725  11.309  17.677  0.00  0.00    +0.401 C 
ATOM      6  O   UNL     1      -6.569  12.207  17.610  0.00  0.00    -0.226 OA
ATOM      7  N   UNL     1      -4.804  11.223  18.637  0.00  0.00    -0.279 N 
ATOM      8  H   UNL     1      -4.161  10.444  18.613  0.00  0.00    +0.152 HD
BRANCH   5   9
ATOM      9  O   UNL     1      -5.719  10.286  16.678  0.00  0.00    -0.444 OA
BRANCH   9  10
ATOM     10  C   UNL     1      -5.970  10.868  15.396  0.00  0.00    +0.292 C 
BRANCH  10  12
ATOM     11  N   UNL     1      -3.565  10.739  14.826  0.00  0.00    -0.131 NA
ATOM     12  C   UNL     1      -4.730  11.449  14.846  0.00  0.00    +0.121 A 
ATOM     13  C   UNL     1      -4.511  12.688  14.288  0.00  0.00    +0.143 A 
ATOM     14  N   UNL     1      -3.188  12.678  13.911  0.00  0.00    -0.220 N 
ATOM     15  N   UNL     1      -2.632  11.494  14.264  0.00  0.00    -0.060 NA
BRANCH  14  16
ATOM     16  C   UNL     1      -2.451  13.684  13.232  0.00  0.00    +0.067 A 
ATOM     17  C   UNL     1      -2.635  15.041  13.533  0.00  0.00    +0.029 A 
ATOM     18  C   UNL     1      -1.926  16.017  12.826  0.00  0.00    +0.022 A 
ATOM     19  C   UNL     1      -1.034  15.644  11.823  0.00  0.00    +0.041 A 
ATOM     20 CL   UNL     1      -0.184  16.853  10.943  0.00  0.00    -0.084 Cl
ATOM     21  C   UNL     1      -0.833  14.298  11.526  0.00  0.00    +0.022 A 
ATOM     22  C   UNL     1      -1.537  13.316  12.229  0.00  0.00    +0.029 A 
ENDBRANCH  14  16
ENDBRANCH  10  12
ENDBRANCH   9  10
ENDBRANCH   5   9
ENDBRANCH   4   7
ENDBRANCH   1   4
BRANCH   1  23
ATOM     23  C   UNL     1      -3.415  11.683  21.831  0.00  0.00    +0.175 C 
BRANCH  23  24
ATOM     24  C   UNL     1      -3.602  11.912  23.338  0.00  0.00    +0.176 C 
ATOM     25  O   UNL     1      -4.009  10.650  23.935  0.00  0.00    -0.332 OA
ATOM     26  C   UNL     1      -4.133  10.651  25.396  0.00  0.00    +0.277 C 
ATOM     27  C   UNL     1      -5.087  11.780  25.857  0.00  0.00    +0.110 C 
ATOM     28  C   UNL     1      -4.713  13.136  25.223  0.00  0.00    +0.143 C 
ATOM     29  C   UNL     1      -4.608  13.020  23.702  0.00  0.00    +0.133 C 
BRANCH  29  30
ATOM     30  N   UNL     1      -4.166  14.296  23.117  0.00  0.00    -0.308 N 
ATOM     31  H   UNL     1      -3.211  14.583  23.279  0.00  0.00    +0.149 HD
ATOM     32  C   UNL     1      -4.945  15.099  22.387  0.00  0.00    +0.210 C 
ATOM     33  C   UNL     1      -6.402  14.646  22.181  0.00  0.00    +0.109 C 
ATOM     34  O   UNL     1      -4.543  16.155  21.898  0.00  0.00    -0.276 OA
ENDBRANCH  29  30
BRANCH  26  35
ATOM     35  C   UNL     1      -2.754  10.836  26.062  0.00  0.00    +0.414 C 
ATOM     36  O   UNL     1      -1.738  10.415  25.511  0.00  0.00    -0.240 OA
ATOM     37  O   UNL     1      -2.658  11.407  27.149  0.00  0.00    -0.240 OA
ENDBRANCH  26  35
BRANCH  28  38
ATOM     38  O   UNL     1      -5.702  14.112  25.553  0.00  0.00    -0.390 OA
ATOM     39  H   UNL     1      -6.461  13.677  25.949  0.00  0.00    +0.210 HD
ENDBRANCH  28  38
BRANCH  26  40
ATOM     40  O   UNL     1      -4.703   9.378  25.798  0.00  0.00    -0.343 OA
ATOM     41  C   UNL     1      -4.548   8.306  24.834  0.00  0.00    +0.198 C 
ENDBRANCH  26  40
ENDBRANCH  23  24
BRANCH  23  42
ATOM     42  O   UNL     1      -2.655  12.764  21.255  0.00  0.00    -0.387 OA
ATOM     43  H   UNL     1      -2.548  12.614  20.312  0.00  0.00    +0.210 HD
ENDBRANCH  23  42
ENDBRANCH   1  23
TORSDOF 14
