REMARK VINA RESULT:    -4.517      3.545      8.069
REMARK INTER + INTRA:         -12.188
REMARK INTER:                  -9.166
REMARK INTRA:                  -3.022
REMARK UNBOUND:                -2.785
REMARK  Name = lig_assembled_54.pdb
REMARK  24 active torsions:
REMARK  status: ('A' for Active; 'I' for Inactive)
REMARK    1  A    between atoms: _2  and  _9
REMARK    2  A    between atoms: _4  and  _21
REMARK    3  A    between atoms: _5  and  _14
REMARK    4  A    between atoms: _6  and  _7
REMARK    5  A    between atoms: _6  and  _21
REMARK    6  A    between atoms: _9  and  _10
REMARK    7  A    between atoms: _10  and  _11
REMARK    8  A    between atoms: _11  and  _15
REMARK    9  A    between atoms: _11  and  _16
REMARK   10  A    between atoms: _12  and  _13
REMARK   11  A    between atoms: _12  and  _16
REMARK   12  A    between atoms: _14  and  _15
REMARK   13  A    between atoms: _17  and  _37
REMARK   14  A    between atoms: _19  and  _25
REMARK   15  A    between atoms: _20  and  _24
REMARK   16  A    between atoms: _24  and  _25
REMARK   17  A    between atoms: _27  and  _28
REMARK   18  A    between atoms: _29  and  _30
REMARK   19  A    between atoms: _31  and  _33
REMARK   20  A    between atoms: _33  and  _34
REMARK   21  A    between atoms: _33  and  _35
REMARK   22  A    between atoms: _35  and  _36
REMARK   23  A    between atoms: _35  and  _37
REMARK   24  A    between atoms: _38  and  _40
REMARK                            x       y       z     vdW  Elec       q    Type
REMARK                         _______ _______ _______ _____ _____    ______ ____
ROOT
ATOM      1  C   UNL     1      -2.829  11.921  24.138  0.00  0.00    +0.163 C 
ENDROOT
BRANCH   1   2
ATOM      2  O   UNL     1      -2.068  11.793  25.350  0.00  0.00    -0.388 OA
ATOM      3  H   UNL     1      -2.443  12.363  26.026  0.00  0.00    +0.210 HD
ENDBRANCH   1   2
BRANCH   1   4
ATOM      4  C   UNL     1      -3.765  10.716  23.946  0.00  0.00    +0.175 C 
BRANCH   4   5
ATOM      5  C   UNL     1      -3.922   9.894  25.234  0.00  0.00    +0.176 C 
ATOM      6  O   UNL     1      -2.865   8.896  25.259  0.00  0.00    -0.332 OA
ATOM      7  C   UNL     1      -2.791   8.081  26.475  0.00  0.00    +0.277 C 
ATOM      8  C   UNL     1      -4.155   7.406  26.758  0.00  0.00    +0.110 C 
ATOM      9  C   UNL     1      -5.315   8.423  26.711  0.00  0.00    +0.143 C 
ATOM     10  C   UNL     1      -5.295   9.218  25.404  0.00  0.00    +0.133 C 
BRANCH  10  11
ATOM     11  N   UNL     1      -6.350  10.243  25.408  0.00  0.00    -0.308 N 
ATOM     12  H   UNL     1      -6.321  10.948  26.132  0.00  0.00    +0.149 HD
ATOM     13  C   UNL     1      -7.345  10.302  24.519  0.00  0.00    +0.210 C 
ATOM     14  C   UNL     1      -7.377   9.198  23.445  0.00  0.00    +0.109 C 
ATOM     15  O   UNL     1      -8.208  11.181  24.538  0.00  0.00    -0.276 OA
ENDBRANCH  10  11
BRANCH   7  16
ATOM     16  C   UNL     1      -2.382   8.943  27.687  0.00  0.00    +0.414 C 
ATOM     17  O   UNL     1      -2.790   8.663  28.814  0.00  0.00    -0.240 OA
ATOM     18  O   UNL     1      -1.644   9.918  27.539  0.00  0.00    -0.240 OA
ENDBRANCH   7  16
BRANCH   9  19
ATOM     19  O   UNL     1      -6.562   7.737  26.825  0.00  0.00    -0.390 OA
ATOM     20  H   UNL     1      -6.493   7.054  27.496  0.00  0.00    +0.210 HD
ENDBRANCH   9  19
BRANCH   7  21
ATOM     21  O   UNL     1      -1.802   7.041  26.260  0.00  0.00    -0.343 OA
ATOM     22  C   UNL     1      -2.102   5.771  26.891  0.00  0.00    +0.198 C 
ENDBRANCH   7  21
ENDBRANCH   4   5
BRANCH   4  23
ATOM     23  O   UNL     1      -3.282   9.877  22.878  0.00  0.00    -0.387 OA
ATOM     24  H   UNL     1      -2.945   9.055  23.243  0.00  0.00    +0.210 HD
ENDBRANCH   4  23
ENDBRANCH   1   4
BRANCH   1  25
ATOM     25  C   UNL     1      -3.652  13.205  24.173  0.00  0.00    +0.141 C 
BRANCH  25  28
ATOM     26  C   UNL     1      -4.662  13.481  21.934  0.00  0.00    +0.401 C 
ATOM     27  O   UNL     1      -3.614  13.854  21.404  0.00  0.00    -0.226 OA
ATOM     28  N   UNL     1      -4.773  13.163  23.225  0.00  0.00    -0.279 N 
ATOM     29  H   UNL     1      -5.678  12.876  23.570  0.00  0.00    +0.152 HD
BRANCH  26  30
ATOM     30  O   UNL     1      -5.846  13.379  21.138  0.00  0.00    -0.444 OA
BRANCH  30  31
ATOM     31  C   UNL     1      -6.350  12.042  21.200  0.00  0.00    +0.292 C 
BRANCH  31  33
ATOM     32  N   UNL     1      -5.202  10.003  20.389  0.00  0.00    -0.131 NA
ATOM     33  C   UNL     1      -5.755  11.228  20.123  0.00  0.00    +0.120 A 
ATOM     34  C   UNL     1      -5.658  11.482  18.772  0.00  0.00    +0.137 A 
ATOM     35  N   UNL     1      -5.073  10.360  18.268  0.00  0.00    -0.251 N 
ATOM     36  N   UNL     1      -4.794   9.476  19.242  0.00  0.00    -0.065 NA
BRANCH  35  37
ATOM     37  C   UNL     1      -4.804  10.031  16.882  0.00  0.00    +0.150 C 
BRANCH  37  38
ATOM     38  C   UNL     1      -3.805  10.993  16.258  0.00  0.00    +0.084 C 
BRANCH  38  39
ATOM     39  C   UNL     1      -3.261  10.515  14.906  0.00  0.00    +0.252 C 
BRANCH  39  40
ATOM     40  O   UNL     1      -2.059   9.765  15.096  0.00  0.00    -0.352 OA
BRANCH  40  41
ATOM     41  C   UNL     1      -2.196   8.369  14.840  0.00  0.00    +0.159 C 
ATOM     42  C   UNL     1      -3.200   8.174  13.721  0.00  0.00    +0.034 C 
ENDBRANCH  40  41
ENDBRANCH  39  40
BRANCH  39  43
ATOM     43  O   UNL     1      -2.990  11.677  14.114  0.00  0.00    -0.352 OA
BRANCH  43  44
ATOM     44  C   UNL     1      -3.897  12.748  14.383  0.00  0.00    +0.159 C 
ATOM     45  C   UNL     1      -3.325  14.036  13.825  0.00  0.00    +0.034 C 
ENDBRANCH  43  44
ENDBRANCH  39  43
ENDBRANCH  38  39
ENDBRANCH  37  38
ENDBRANCH  35  37
ENDBRANCH  31  33
ENDBRANCH  30  31
ENDBRANCH  26  30
ENDBRANCH  25  28
ENDBRANCH   1  25
TORSDOF 20
