REMARK VINA RESULT:    -5.304      5.134     10.753
REMARK INTER + INTRA:         -12.908
REMARK INTER:                  -9.267
REMARK INTRA:                  -3.641
REMARK UNBOUND:                -3.108
REMARK  Name = lig_assembled_58.pdb
REMARK  18 active torsions:
REMARK  status: ('A' for Active; 'I' for Inactive)
REMARK    1  A    between atoms: _2  and  _9
REMARK    2  A    between atoms: _4  and  _25
REMARK    3  A    between atoms: _6  and  _7
REMARK    4  A    between atoms: _6  and  _25
REMARK    5  A    between atoms: _9  and  _10
REMARK    6  A    between atoms: _9  and  _16
REMARK    7  A    between atoms: _21  and  _41
REMARK    8  A    between atoms: _23  and  _29
REMARK    9  A    between atoms: _24  and  _28
REMARK   10  A    between atoms: _28  and  _29
REMARK   11  A    between atoms: _31  and  _32
REMARK   12  A    between atoms: _33  and  _34
REMARK   13  A    between atoms: _35  and  _37
REMARK   14  A    between atoms: _37  and  _38
REMARK   15  A    between atoms: _37  and  _39
REMARK   16  A    between atoms: _39  and  _40
REMARK   17  A    between atoms: _39  and  _41
REMARK   18  A    between atoms: _42  and  _44
REMARK                            x       y       z     vdW  Elec       q    Type
REMARK                         _______ _______ _______ _____ _____    ______ ____
ROOT
ATOM      1  C   UNL     1      -3.626   6.629  28.212  0.00  0.00    +0.141 C 
ENDROOT
BRANCH   1   4
ATOM      2  C   UNL     1      -2.926   6.854  25.853  0.00  0.00    +0.401 C 
ATOM      3  O   UNL     1      -1.765   7.164  26.129  0.00  0.00    -0.226 OA
ATOM      4  N   UNL     1      -3.865   6.593  26.764  0.00  0.00    -0.279 N 
ATOM      5  H   UNL     1      -4.792   6.357  26.440  0.00  0.00    +0.152 HD
BRANCH   2   6
ATOM      6  O   UNL     1      -3.315   6.768  24.480  0.00  0.00    -0.444 OA
BRANCH   6   7
ATOM      7  C   UNL     1      -4.701   7.095  24.354  0.00  0.00    +0.292 C 
BRANCH   7   9
ATOM      8  N   UNL     1      -6.163   8.353  22.785  0.00  0.00    -0.131 NA
ATOM      9  C   UNL     1      -4.909   8.007  23.214  0.00  0.00    +0.120 A 
ATOM     10  C   UNL     1      -3.977   8.666  22.445  0.00  0.00    +0.138 A 
ATOM     11  N   UNL     1      -4.719   9.517  21.671  0.00  0.00    -0.240 N 
ATOM     12  N   UNL     1      -6.038   9.262  21.826  0.00  0.00    -0.064 NA
BRANCH  11  13
ATOM     13  C   UNL     1      -4.271  10.613  20.793  0.00  0.00    +0.169 C 
BRANCH  13  14
ATOM     14  C   UNL     1      -5.171  10.691  19.551  0.00  0.00    -0.019 A 
ATOM     15  C   UNL     1      -4.977   9.800  18.482  0.00  0.00    +0.006 A 
ATOM     16  C   UNL     1      -5.752   9.900  17.323  0.00  0.00    +0.000 A 
ATOM     17  C   UNL     1      -6.740  10.878  17.219  0.00  0.00    +0.000 A 
ATOM     18  C   UNL     1      -6.945  11.770  18.266  0.00  0.00    +0.000 A 
ATOM     19  C   UNL     1      -6.161  11.684  19.415  0.00  0.00    +0.006 A 
ENDBRANCH  13  14
BRANCH  13  20
ATOM     20  C   UNL     1      -4.090  11.939  21.545  0.00  0.00    -0.019 A 
ATOM     21  C   UNL     1      -4.634  12.130  22.828  0.00  0.00    +0.006 A 
ATOM     22  C   UNL     1      -4.468  13.340  23.506  0.00  0.00    +0.000 A 
ATOM     23  C   UNL     1      -3.736  14.373  22.927  0.00  0.00    +0.000 A 
ATOM     24  C   UNL     1      -3.143  14.188  21.686  0.00  0.00    +0.000 A 
ATOM     25  C   UNL     1      -3.302  12.979  21.011  0.00  0.00    +0.006 A 
ENDBRANCH  13  20
ENDBRANCH  11  13
ENDBRANCH   7   9
ENDBRANCH   6   7
ENDBRANCH   2   6
ENDBRANCH   1   4
BRANCH   1  26
ATOM     26  C   UNL     1      -4.032   7.967  28.823  0.00  0.00    +0.163 C 
BRANCH  26  27
ATOM     27  O   UNL     1      -5.059   7.766  29.808  0.00  0.00    -0.388 OA
ATOM     28  H   UNL     1      -5.716   7.156  29.467  0.00  0.00    +0.210 HD
ENDBRANCH  26  27
BRANCH  26  29
ATOM     29  C   UNL     1      -2.798   8.645  29.443  0.00  0.00    +0.175 C 
BRANCH  29  30
ATOM     30  C   UNL     1      -3.032  10.139  29.708  0.00  0.00    +0.176 C 
ATOM     31  O   UNL     1      -3.897  10.258  30.870  0.00  0.00    -0.332 OA
ATOM     32  C   UNL     1      -4.146  11.624  31.339  0.00  0.00    +0.277 C 
ATOM     33  C   UNL     1      -4.695  12.500  30.186  0.00  0.00    +0.110 C 
ATOM     34  C   UNL     1      -3.825  12.382  28.917  0.00  0.00    +0.143 C 
ATOM     35  C   UNL     1      -3.629  10.918  28.521  0.00  0.00    +0.133 C 
BRANCH  35  36
ATOM     36  N   UNL     1      -2.727  10.815  27.362  0.00  0.00    -0.308 N 
ATOM     37  H   UNL     1      -1.743  10.982  27.514  0.00  0.00    +0.149 HD
ATOM     38  C   UNL     1      -3.126  10.515  26.123  0.00  0.00    +0.210 C 
ATOM     39  C   UNL     1      -4.636  10.291  25.920  0.00  0.00    +0.109 C 
ATOM     40  O   UNL     1      -2.346  10.420  25.175  0.00  0.00    -0.276 OA
ENDBRANCH  35  36
BRANCH  32  41
ATOM     41  C   UNL     1      -2.852  12.256  31.895  0.00  0.00    +0.414 C 
ATOM     42  O   UNL     1      -1.938  11.540  32.301  0.00  0.00    -0.240 OA
ATOM     43  O   UNL     1      -2.723  13.480  31.936  0.00  0.00    -0.240 OA
ENDBRANCH  32  41
BRANCH  34  44
ATOM     44  O   UNL     1      -4.449  13.081  27.839  0.00  0.00    -0.390 OA
ATOM     45  H   UNL     1      -5.403  13.017  27.924  0.00  0.00    +0.210 HD
ENDBRANCH  34  44
BRANCH  32  46
ATOM     46  O   UNL     1      -5.149  11.564  32.386  0.00  0.00    -0.343 OA
ATOM     47  C   UNL     1      -5.379  10.244  32.938  0.00  0.00    +0.198 C 
ENDBRANCH  32  46
ENDBRANCH  29  30
BRANCH  29  48
ATOM     48  O   UNL     1      -1.651   8.464  28.589  0.00  0.00    -0.387 OA
ATOM     49  H   UNL     1      -1.584   9.205  27.982  0.00  0.00    +0.210 HD
ENDBRANCH  29  48
ENDBRANCH  26  29
ENDBRANCH   1  26
TORSDOF 16
