REMARK VINA RESULT:    -4.792      3.743      9.540
REMARK INTER + INTRA:         -11.786
REMARK INTER:                  -8.628
REMARK INTRA:                  -3.158
REMARK UNBOUND:                -3.213
REMARK  Name = lig_assembled_46.pdb
REMARK  17 active torsions:
REMARK  status: ('A' for Active; 'I' for Inactive)
REMARK    1  A    between atoms: _2  and  _9
REMARK    2  A    between atoms: _4  and  _19
REMARK    3  A    between atoms: _6  and  _7
REMARK    4  A    between atoms: _6  and  _19
REMARK    5  A    between atoms: _9  and  _10
REMARK    6  A    between atoms: _15  and  _35
REMARK    7  A    between atoms: _17  and  _23
REMARK    8  A    between atoms: _18  and  _22
REMARK    9  A    between atoms: _22  and  _23
REMARK   10  A    between atoms: _25  and  _26
REMARK   11  A    between atoms: _27  and  _28
REMARK   12  A    between atoms: _29  and  _31
REMARK   13  A    between atoms: _31  and  _32
REMARK   14  A    between atoms: _31  and  _33
REMARK   15  A    between atoms: _33  and  _34
REMARK   16  A    between atoms: _33  and  _35
REMARK   17  A    between atoms: _36  and  _38
REMARK                            x       y       z     vdW  Elec       q    Type
REMARK                         _______ _______ _______ _____ _____    ______ ____
ROOT
ATOM      1  C   UNL     1      -2.366   9.895  27.113  0.00  0.00    +0.163 C 
ENDROOT
BRANCH   1   2
ATOM      2  O   UNL     1      -1.174   9.985  26.316  0.00  0.00    -0.388 OA
ATOM      3  H   UNL     1      -1.027  10.899  26.060  0.00  0.00    +0.210 HD
ENDBRANCH   1   2
BRANCH   1   4
ATOM      4  C   UNL     1      -2.071   9.148  28.410  0.00  0.00    +0.141 C 
BRANCH   4   7
ATOM      5  C   UNL     1      -3.492   9.375  30.418  0.00  0.00    +0.401 C 
ATOM      6  O   UNL     1      -4.018   8.267  30.287  0.00  0.00    -0.226 OA
ATOM      7  N   UNL     1      -2.577   9.870  29.584  0.00  0.00    -0.279 N 
ATOM      8  H   UNL     1      -2.211  10.793  29.771  0.00  0.00    +0.152 HD
BRANCH   5   9
ATOM      9  O   UNL     1      -3.875  10.198  31.523  0.00  0.00    -0.444 OA
BRANCH   9  10
ATOM     10  C   UNL     1      -2.705  10.705  32.169  0.00  0.00    +0.292 C 
BRANCH  10  12
ATOM     11  N   UNL     1      -1.803  13.002  31.980  0.00  0.00    -0.131 NA
ATOM     12  C   UNL     1      -2.815  12.163  32.362  0.00  0.00    +0.120 A 
ATOM     13  C   UNL     1      -3.855  12.913  32.869  0.00  0.00    +0.137 A 
ATOM     14  N   UNL     1      -3.438  14.205  32.713  0.00  0.00    -0.247 N 
ATOM     15  N   UNL     1      -2.198  14.253  32.190  0.00  0.00    -0.065 NA
BRANCH  14  16
ATOM     16  C   UNL     1      -4.244  15.411  32.799  0.00  0.00    +0.180 C 
BRANCH  16  17
ATOM     17  C   UNL     1      -4.877  15.812  31.490  0.00  0.00    -0.026 A 
ATOM     18  C   UNL     1      -5.918  15.056  30.930  0.00  0.00    +0.005 A 
ATOM     19  C   UNL     1      -6.562  15.488  29.768  0.00  0.00    +0.000 A 
ATOM     20  C   UNL     1      -6.177  16.678  29.156  0.00  0.00    +0.000 A 
ATOM     21  C   UNL     1      -5.140  17.434  29.697  0.00  0.00    +0.000 A 
ATOM     22  C   UNL     1      -4.493  17.005  30.858  0.00  0.00    +0.005 A 
ENDBRANCH  16  17
ENDBRANCH  14  16
ENDBRANCH  10  12
ENDBRANCH   9  10
ENDBRANCH   5   9
ENDBRANCH   4   7
ENDBRANCH   1   4
BRANCH   1  23
ATOM     23  C   UNL     1      -3.487   9.172  26.347  0.00  0.00    +0.175 C 
BRANCH  23  24
ATOM     24  C   UNL     1      -4.210  10.104  25.364  0.00  0.00    +0.176 C 
ATOM     25  O   UNL     1      -3.316  10.353  24.244  0.00  0.00    -0.332 OA
ATOM     26  C   UNL     1      -3.880  11.144  23.146  0.00  0.00    +0.277 C 
ATOM     27  C   UNL     1      -4.437  12.487  23.678  0.00  0.00    +0.110 C 
ATOM     28  C   UNL     1      -5.369  12.276  24.891  0.00  0.00    +0.143 C 
ATOM     29  C   UNL     1      -4.683  11.438  25.970  0.00  0.00    +0.133 C 
BRANCH  29  30
ATOM     30  N   UNL     1      -5.610  11.171  27.081  0.00  0.00    -0.308 N 
ATOM     31  H   UNL     1      -6.382  10.541  26.911  0.00  0.00    +0.149 HD
ATOM     32  C   UNL     1      -5.499  11.707  28.300  0.00  0.00    +0.210 C 
ATOM     33  C   UNL     1      -4.328  12.684  28.520  0.00  0.00    +0.109 C 
ATOM     34  O   UNL     1      -6.282  11.454  29.216  0.00  0.00    -0.276 OA
ENDBRANCH  29  30
BRANCH  26  35
ATOM     35  C   UNL     1      -5.004  10.366  22.432  0.00  0.00    +0.414 C 
ATOM     36  O   UNL     1      -4.814   9.211  22.052  0.00  0.00    -0.240 OA
ATOM     37  O   UNL     1      -6.100  10.892  22.236  0.00  0.00    -0.240 OA
ENDBRANCH  26  35
BRANCH  26  38
ATOM     38  O   UNL     1      -2.812  11.433  22.207  0.00  0.00    -0.343 OA
ATOM     39  C   UNL     1      -3.178  12.316  21.116  0.00  0.00    +0.198 C 
ENDBRANCH  26  38
BRANCH  28  40
ATOM     40  O   UNL     1      -5.738  13.542  25.441  0.00  0.00    -0.390 OA
ATOM     41  H   UNL     1      -6.695  13.611  25.473  0.00  0.00    +0.210 HD
ENDBRANCH  28  40
ENDBRANCH  23  24
BRANCH  23  42
ATOM     42  O   UNL     1      -4.431   8.598  27.273  0.00  0.00    -0.387 OA
ATOM     43  H   UNL     1      -3.997   7.919  27.794  0.00  0.00    +0.210 HD
ENDBRANCH  23  42
ENDBRANCH   1  23
TORSDOF 15
