REMARK VINA RESULT:    -4.676     10.827     14.384
REMARK INTER + INTRA:         -11.158
REMARK INTER:                  -7.780
REMARK INTRA:                  -3.378
REMARK UNBOUND:                -2.792
REMARK  Name = lig_assembled_5.pdb
REMARK  18 active torsions:
REMARK  status: ('A' for Active; 'I' for Inactive)
REMARK    1  A    between atoms: _2  and  _9
REMARK    2  A    between atoms: _4  and  _20
REMARK    3  A    between atoms: _6  and  _7
REMARK    4  A    between atoms: _6  and  _20
REMARK    5  A    between atoms: _12  and  _15
REMARK    6  A    between atoms: _13  and  _15
REMARK    7  A    between atoms: _16  and  _36
REMARK    8  A    between atoms: _18  and  _24
REMARK    9  A    between atoms: _19  and  _23
REMARK   10  A    between atoms: _23  and  _24
REMARK   11  A    between atoms: _26  and  _27
REMARK   12  A    between atoms: _28  and  _29
REMARK   13  A    between atoms: _30  and  _32
REMARK   14  A    between atoms: _32  and  _33
REMARK   15  A    between atoms: _32  and  _34
REMARK   16  A    between atoms: _34  and  _35
REMARK   17  A    between atoms: _34  and  _36
REMARK   18  A    between atoms: _37  and  _39
REMARK                            x       y       z     vdW  Elec       q    Type
REMARK                         _______ _______ _______ _____ _____    ______ ____
ROOT
ATOM      1  C   UNL     1      -6.074   7.902  11.521  0.00  0.00    +0.163 C 
ENDROOT
BRANCH   1   2
ATOM      2  O   UNL     1      -4.809   7.227  11.611  0.00  0.00    -0.388 OA
ATOM      3  H   UNL     1      -4.738   6.583  10.902  0.00  0.00    +0.210 HD
ENDBRANCH   1   2
BRANCH   1   4
ATOM      4  C   UNL     1      -6.367   8.269  10.070  0.00  0.00    +0.141 C 
BRANCH   4   7
ATOM      5  C   UNL     1      -4.648   9.868   9.300  0.00  0.00    +0.401 C 
ATOM      6  O   UNL     1      -3.781   9.005   9.143  0.00  0.00    -0.226 OA
ATOM      7  N   UNL     1      -5.882   9.614   9.736  0.00  0.00    -0.279 N 
ATOM      8  H   UNL     1      -6.520  10.390   9.842  0.00  0.00    +0.152 HD
BRANCH   5   9
ATOM      9  O   UNL     1      -4.331  11.231   9.009  0.00  0.00    -0.444 OA
BRANCH   9  10
ATOM     10  C   UNL     1      -2.983  11.319   8.539  0.00  0.00    +0.292 C 
BRANCH  10  12
ATOM     11  N   UNL     1      -2.104  11.638  10.830  0.00  0.00    -0.131 NA
ATOM     12  C   UNL     1      -2.143  12.027   9.523  0.00  0.00    +0.121 A 
ATOM     13  C   UNL     1      -1.308  13.106   9.351  0.00  0.00    +0.143 A 
ATOM     14  N   UNL     1      -0.750  13.327  10.590  0.00  0.00    -0.220 N 
ATOM     15  N   UNL     1      -1.262  12.435  11.473  0.00  0.00    -0.060 NA
BRANCH  14  16
ATOM     16  C   UNL     1       0.230  14.282  10.966  0.00  0.00    +0.067 A 
ATOM     17  C   UNL     1       0.098  15.016  12.150  0.00  0.00    +0.031 A 
ATOM     18  C   UNL     1       1.041  15.995  12.472  0.00  0.00    +0.048 A 
ATOM     19  C   UNL     1       2.132  16.241  11.637  0.00  0.00    +0.120 A 
ATOM     20  C   UNL     1       2.276  15.500  10.465  0.00  0.00    +0.048 A 
ATOM     21  C   UNL     1       1.329  14.524  10.127  0.00  0.00    +0.031 A 
BRANCH  19  22
ATOM     22  O   UNL     1       2.944  17.266  12.037  0.00  0.00    -0.495 OA
ATOM     23  C   UNL     1       2.705  18.531  11.436  0.00  0.00    +0.277 C 
ENDBRANCH  19  22
ENDBRANCH  14  16
ENDBRANCH  10  12
ENDBRANCH   9  10
ENDBRANCH   5   9
ENDBRANCH   4   7
ENDBRANCH   1   4
BRANCH   1  24
ATOM     24  C   UNL     1      -6.079   9.176  12.384  0.00  0.00    +0.175 C 
BRANCH  24  25
ATOM     25  C   UNL     1      -4.719   9.429  13.050  0.00  0.00    +0.176 C 
ATOM     26  O   UNL     1      -4.613   8.545  14.200  0.00  0.00    -0.332 OA
ATOM     27  C   UNL     1      -3.328   8.572  14.904  0.00  0.00    +0.277 C 
ATOM     28  C   UNL     1      -2.969  10.019  15.321  0.00  0.00    +0.110 C 
ATOM     29  C   UNL     1      -3.098  11.002  14.138  0.00  0.00    +0.143 C 
ATOM     30  C   UNL     1      -4.472  10.888  13.478  0.00  0.00    +0.133 C 
BRANCH  30  31
ATOM     31  N   UNL     1      -4.552  11.765  12.299  0.00  0.00    -0.308 N 
ATOM     32  H   UNL     1      -3.943  11.563  11.519  0.00  0.00    +0.149 HD
ATOM     33  C   UNL     1      -5.376  12.811  12.194  0.00  0.00    +0.210 C 
ATOM     34  C   UNL     1      -6.273  13.107  13.410  0.00  0.00    +0.109 C 
ATOM     35  O   UNL     1      -5.432  13.520  11.188  0.00  0.00    -0.276 OA
ENDBRANCH  30  31
BRANCH  27  36
ATOM     36  C   UNL     1      -2.205   7.999  14.014  0.00  0.00    +0.414 C 
ATOM     37  O   UNL     1      -2.393   6.973  13.362  0.00  0.00    -0.240 OA
ATOM     38  O   UNL     1      -1.112   8.562  13.948  0.00  0.00    -0.240 OA
ENDBRANCH  27  36
BRANCH  27  39
ATOM     39  O   UNL     1      -3.457   7.768  16.105  0.00  0.00    -0.343 OA
ATOM     40  C   UNL     1      -4.689   7.010  16.205  0.00  0.00    +0.198 C 
ENDBRANCH  27  39
BRANCH  29  41
ATOM     41  O   UNL     1      -2.907  12.340  14.600  0.00  0.00    -0.390 OA
ATOM     42  H   UNL     1      -2.064  12.671  14.282  0.00  0.00    +0.210 HD
ENDBRANCH  29  41
ENDBRANCH  24  25
BRANCH  24  43
ATOM     43  O   UNL     1      -7.115   9.093  13.384  0.00  0.00    -0.387 OA
ATOM     44  H   UNL     1      -7.020   8.274  13.876  0.00  0.00    +0.210 HD
ENDBRANCH  24  43
ENDBRANCH   1  24
TORSDOF 15
