REMARK VINA RESULT:    -4.542      3.108      4.130
REMARK INTER + INTRA:         -11.635
REMARK INTER:                  -9.268
REMARK INTRA:                  -2.367
REMARK UNBOUND:                -3.243
REMARK  Name = lig_assembled_78.pdb
REMARK  18 active torsions:
REMARK  status: ('A' for Active; 'I' for Inactive)
REMARK    1  A    between atoms: _2  and  _9
REMARK    2  A    between atoms: _4  and  _21
REMARK    3  A    between atoms: _6  and  _7
REMARK    4  A    between atoms: _6  and  _21
REMARK    5  A    between atoms: _9  and  _41
REMARK    6  A    between atoms: _10  and  _41
REMARK    7  A    between atoms: _17  and  _37
REMARK    8  A    between atoms: _19  and  _25
REMARK    9  A    between atoms: _20  and  _24
REMARK   10  A    between atoms: _24  and  _25
REMARK   11  A    between atoms: _27  and  _28
REMARK   12  A    between atoms: _29  and  _30
REMARK   13  A    between atoms: _31  and  _33
REMARK   14  A    between atoms: _33  and  _34
REMARK   15  A    between atoms: _33  and  _35
REMARK   16  A    between atoms: _35  and  _36
REMARK   17  A    between atoms: _35  and  _37
REMARK   18  A    between atoms: _38  and  _40
REMARK                            x       y       z     vdW  Elec       q    Type
REMARK                         _______ _______ _______ _____ _____    ______ ____
ROOT
ATOM      1  C   UNL     1      -3.000  12.085  22.708  0.00  0.00    +0.163 C 
ENDROOT
BRANCH   1   2
ATOM      2  O   UNL     1      -2.796  12.803  23.937  0.00  0.00    -0.388 OA
ATOM      3  H   UNL     1      -2.604  13.724  23.742  0.00  0.00    +0.210 HD
ENDBRANCH   1   2
BRANCH   1   4
ATOM      4  C   UNL     1      -3.714  10.747  22.965  0.00  0.00    +0.175 C 
BRANCH   4   5
ATOM      5  C   UNL     1      -3.809  10.421  24.463  0.00  0.00    +0.176 C 
ATOM      6  O   UNL     1      -3.264   9.088  24.666  0.00  0.00    -0.332 OA
ATOM      7  C   UNL     1      -3.174   8.645  26.060  0.00  0.00    +0.277 C 
ATOM      8  C   UNL     1      -4.555   8.757  26.753  0.00  0.00    +0.110 C 
ATOM      9  C   UNL     1      -5.189  10.147  26.538  0.00  0.00    +0.143 C 
ATOM     10  C   UNL     1      -5.229  10.508  25.053  0.00  0.00    +0.133 C 
BRANCH  10  11
ATOM     11  N   UNL     1      -5.756  11.870  24.868  0.00  0.00    -0.308 N 
ATOM     12  H   UNL     1      -5.315  12.620  25.382  0.00  0.00    +0.149 HD
ATOM     13  C   UNL     1      -6.777  12.179  24.065  0.00  0.00    +0.210 C 
ATOM     14  C   UNL     1      -7.444  11.010  23.315  0.00  0.00    +0.109 C 
ATOM     15  O   UNL     1      -7.188  13.331  23.918  0.00  0.00    -0.276 OA
ENDBRANCH  10  11
BRANCH   7  16
ATOM     16  C   UNL     1      -2.139   9.486  26.836  0.00  0.00    +0.414 C 
ATOM     17  O   UNL     1      -2.354   9.812  28.003  0.00  0.00    -0.240 OA
ATOM     18  O   UNL     1      -1.090   9.839  26.296  0.00  0.00    -0.240 OA
ENDBRANCH   7  16
BRANCH   7  19
ATOM     19  O   UNL     1      -2.772   7.251  26.063  0.00  0.00    -0.343 OA
ATOM     20  C   UNL     1      -3.373   6.443  27.107  0.00  0.00    +0.198 C 
ENDBRANCH   7  19
BRANCH   9  21
ATOM     21  O   UNL     1      -6.519  10.156  27.060  0.00  0.00    -0.390 OA
ATOM     22  H   UNL     1      -6.530  10.623  27.899  0.00  0.00    +0.210 HD
ENDBRANCH   9  21
ENDBRANCH   4   5
BRANCH   4  23
ATOM     23  O   UNL     1      -3.040   9.682  22.266  0.00  0.00    -0.387 OA
ATOM     24  H   UNL     1      -2.306  10.043  21.764  0.00  0.00    +0.210 HD
ENDBRANCH   4  23
ENDBRANCH   1   4
BRANCH   1  25
ATOM     25  C   UNL     1      -3.827  12.928  21.743  0.00  0.00    +0.141 C 
BRANCH  25  28
ATOM     26  C   UNL     1      -5.707  12.361  20.242  0.00  0.00    +0.401 C 
ATOM     27  O   UNL     1      -6.404  13.313  20.602  0.00  0.00    -0.226 OA
ATOM     28  N   UNL     1      -4.492  12.102  20.727  0.00  0.00    -0.279 N 
ATOM     29  H   UNL     1      -4.001  11.291  20.376  0.00  0.00    +0.152 HD
BRANCH  26  30
ATOM     30  O   UNL     1      -6.213  11.466  19.249  0.00  0.00    -0.444 OA
BRANCH  30  31
ATOM     31  C   UNL     1      -5.351  10.330  19.146  0.00  0.00    +0.292 C 
BRANCH  31  33
ATOM     32  N   UNL     1      -5.017   8.654  17.350  0.00  0.00    -0.131 NA
ATOM     33  C   UNL     1      -5.153   9.963  17.731  0.00  0.00    +0.120 A 
ATOM     34  C   UNL     1      -5.073  10.766  16.615  0.00  0.00    +0.139 A 
ATOM     35  N   UNL     1      -4.951   9.883  15.584  0.00  0.00    -0.230 N 
ATOM     36  N   UNL     1      -4.870   8.619  16.032  0.00  0.00    -0.064 NA
BRANCH  35  37
ATOM     37  C   UNL     1      -4.822  10.157  14.173  0.00  0.00    +0.316 C 
BRANCH  37  38
ATOM     38  S   UNL     1      -3.141  10.337  13.636  0.00  0.00    +0.017 S 
ATOM     39  O   UNL     1      -2.238  10.042  14.730  0.00  0.00    -0.168 OA
ATOM     40  O   UNL     1      -3.006   9.664  12.355  0.00  0.00    -0.168 OA
BRANCH  38  41
ATOM     41  C   UNL     1      -2.971  12.082  13.324  0.00  0.00    +0.090 A 
ATOM     42  C   UNL     1      -2.064  12.517  12.351  0.00  0.00    +0.027 A 
ATOM     43  C   UNL     1      -1.946  13.880  12.086  0.00  0.00    +0.002 A 
ATOM     44  C   UNL     1      -2.742  14.798  12.774  0.00  0.00    +0.000 A 
ATOM     45  C   UNL     1      -3.659  14.357  13.729  0.00  0.00    +0.002 A 
ATOM     46  C   UNL     1      -3.777  12.995  14.009  0.00  0.00    +0.027 A 
ENDBRANCH  38  41
ENDBRANCH  37  38
ENDBRANCH  35  37
ENDBRANCH  31  33
ENDBRANCH  30  31
ENDBRANCH  26  30
ENDBRANCH  25  28
ENDBRANCH   1  25
TORSDOF 16
