REMARK VINA RESULT:    -5.088      3.399      9.560
REMARK INTER + INTRA:         -12.252
REMARK INTER:                  -9.011
REMARK INTRA:                  -3.242
REMARK UNBOUND:                -2.554
REMARK  Name = lig_assembled_9.pdb
REMARK  20 active torsions:
REMARK  status: ('A' for Active; 'I' for Inactive)
REMARK    1  A    between atoms: _2  and  _9
REMARK    2  A    between atoms: _4  and  _23
REMARK    3  A    between atoms: _6  and  _7
REMARK    4  A    between atoms: _6  and  _23
REMARK    5  A    between atoms: _11  and  _12
REMARK    6  A    between atoms: _12  and  _17
REMARK    7  A    between atoms: _13  and  _14
REMARK    8  A    between atoms: _13  and  _17
REMARK    9  A    between atoms: _19  and  _39
REMARK   10  A    between atoms: _21  and  _27
REMARK   11  A    between atoms: _22  and  _26
REMARK   12  A    between atoms: _26  and  _27
REMARK   13  A    between atoms: _29  and  _30
REMARK   14  A    between atoms: _31  and  _32
REMARK   15  A    between atoms: _33  and  _35
REMARK   16  A    between atoms: _35  and  _36
REMARK   17  A    between atoms: _35  and  _37
REMARK   18  A    between atoms: _37  and  _38
REMARK   19  A    between atoms: _37  and  _39
REMARK   20  A    between atoms: _40  and  _42
REMARK                            x       y       z     vdW  Elec       q    Type
REMARK                         _______ _______ _______ _____ _____    ______ ____
ROOT
ATOM      1  C   UNL     1      -5.137   7.145  24.028  0.00  0.00    +0.163 C 
ENDROOT
BRANCH   1   2
ATOM      2  O   UNL     1      -3.980   6.842  24.825  0.00  0.00    -0.388 OA
ATOM      3  H   UNL     1      -3.946   7.435  25.579  0.00  0.00    +0.210 HD
ENDBRANCH   1   2
BRANCH   1   4
ATOM      4  C   UNL     1      -5.068   8.583  23.484  0.00  0.00    +0.175 C 
BRANCH   4   5
ATOM      5  C   UNL     1      -3.998   9.421  24.199  0.00  0.00    +0.176 C 
ATOM      6  O   UNL     1      -4.334   9.463  25.613  0.00  0.00    -0.332 OA
ATOM      7  C   UNL     1      -3.360  10.136  26.477  0.00  0.00    +0.277 C 
ATOM      8  C   UNL     1      -3.081  11.570  25.962  0.00  0.00    +0.110 C 
ATOM      9  C   UNL     1      -2.750  11.580  24.455  0.00  0.00    +0.143 C 
ATOM     10  C   UNL     1      -3.827  10.850  23.652  0.00  0.00    +0.133 C 
BRANCH  10  11
ATOM     11  N   UNL     1      -3.458  10.791  22.229  0.00  0.00    -0.308 N 
ATOM     12  H   UNL     1      -2.648  10.243  21.974  0.00  0.00    +0.149 HD
ATOM     13  C   UNL     1      -4.122  11.413  21.252  0.00  0.00    +0.210 C 
ATOM     14  C   UNL     1      -5.337  12.261  21.675  0.00  0.00    +0.109 C 
ATOM     15  O   UNL     1      -3.798  11.334  20.066  0.00  0.00    -0.276 OA
ENDBRANCH  10  11
BRANCH   7  16
ATOM     16  C   UNL     1      -2.038   9.343  26.533  0.00  0.00    +0.414 C 
ATOM     17  O   UNL     1      -2.052   8.113  26.514  0.00  0.00    -0.240 OA
ATOM     18  O   UNL     1      -0.958   9.932  26.596  0.00  0.00    -0.240 OA
ENDBRANCH   7  16
BRANCH   7  19
ATOM     19  O   UNL     1      -3.929  10.231  27.808  0.00  0.00    -0.343 OA
ATOM     20  C   UNL     1      -4.891   9.196  28.137  0.00  0.00    +0.198 C 
ENDBRANCH   7  19
BRANCH   9  21
ATOM     21  O   UNL     1      -2.651  12.928  23.992  0.00  0.00    -0.390 OA
ATOM     22  H   UNL     1      -1.857  13.027  23.461  0.00  0.00    +0.210 HD
ENDBRANCH   9  21
ENDBRANCH   4   5
BRANCH   4  23
ATOM     23  O   UNL     1      -6.356   9.219  23.599  0.00  0.00    -0.387 OA
ATOM     24  H   UNL     1      -6.459   9.576  24.484  0.00  0.00    +0.210 HD
ENDBRANCH   4  23
ENDBRANCH   1   4
BRANCH   1  25
ATOM     25  C   UNL     1      -5.241   6.164  22.865  0.00  0.00    +0.141 C 
BRANCH  25  28
ATOM     26  C   UNL     1      -6.006   6.558  20.548  0.00  0.00    +0.401 C 
ATOM     27  O   UNL     1      -4.962   6.152  20.034  0.00  0.00    -0.226 OA
ATOM     28  N   UNL     1      -6.221   6.604  21.864  0.00  0.00    -0.279 N 
ATOM     29  H   UNL     1      -7.107   6.962  22.190  0.00  0.00    +0.152 HD
BRANCH  26  30
ATOM     30  O   UNL     1      -7.065   7.015  19.703  0.00  0.00    -0.444 OA
BRANCH  30  31
ATOM     31  C   UNL     1      -7.470   8.325  20.109  0.00  0.00    +0.292 C 
BRANCH  31  33
ATOM     32  N   UNL     1      -7.508  10.584  19.098  0.00  0.00    -0.131 NA
ATOM     33  C   UNL     1      -6.967   9.333  19.157  0.00  0.00    +0.121 A 
ATOM     34  C   UNL     1      -5.951   9.239  18.235  0.00  0.00    +0.143 A 
ATOM     35  N   UNL     1      -5.881  10.486  17.656  0.00  0.00    -0.220 N 
ATOM     36  N   UNL     1      -6.849  11.276  18.178  0.00  0.00    -0.060 NA
BRANCH  35  37
ATOM     37  C   UNL     1      -4.960  10.963  16.688  0.00  0.00    +0.068 A 
ATOM     38  C   UNL     1      -4.173  10.068  15.951  0.00  0.00    +0.042 A 
ATOM     39  C   UNL     1      -3.240  10.547  15.019  0.00  0.00    +0.061 A 
ATOM     40  C   UNL     1      -3.100  11.925  14.823  0.00  0.00    +0.015 A 
ATOM     41  C   UNL     1      -3.892  12.819  15.547  0.00  0.00    +0.003 A 
ATOM     42  C   UNL     1      -4.820  12.343  16.475  0.00  0.00    +0.028 A 
BRANCH  39  43
ATOM     43  C   UNL     1      -2.430   9.630  14.175  0.00  0.00    +0.339 C 
ATOM     44  O   UNL     1      -2.488   9.601  12.956  0.00  0.00    -0.245 OA
BRANCH  43  45
ATOM     45  O   UNL     1      -1.718   8.788  14.965  0.00  0.00    -0.461 OA
BRANCH  45  46
ATOM     46  C   UNL     1      -1.682   7.420  14.538  0.00  0.00    +0.229 C 
ATOM     47  C   UNL     1      -2.873   6.707  15.149  0.00  0.00    +0.048 C 
ENDBRANCH  45  46
ENDBRANCH  43  45
ENDBRANCH  39  43
ENDBRANCH  35  37
ENDBRANCH  31  33
ENDBRANCH  30  31
ENDBRANCH  26  30
ENDBRANCH  25  28
ENDBRANCH   1  25
TORSDOF 17
