REMARK VINA RESULT:    -5.993      3.466      8.010
REMARK INTER + INTRA:         -13.515
REMARK INTER:                 -10.054
REMARK INTRA:                  -3.461
REMARK UNBOUND:                -3.141
REMARK  Name = lig_assembled_91.pdb
REMARK  16 active torsions:
REMARK  status: ('A' for Active; 'I' for Inactive)
REMARK    1  A    between atoms: _2  and  _10
REMARK    2  A    between atoms: _5  and  _26
REMARK    3  A    between atoms: _7  and  _8
REMARK    4  A    between atoms: _7  and  _26
REMARK    5  A    between atoms: _22  and  _42
REMARK    6  A    between atoms: _24  and  _30
REMARK    7  A    between atoms: _25  and  _29
REMARK    8  A    between atoms: _29  and  _30
REMARK    9  A    between atoms: _32  and  _33
REMARK   10  A    between atoms: _34  and  _35
REMARK   11  A    between atoms: _36  and  _38
REMARK   12  A    between atoms: _38  and  _39
REMARK   13  A    between atoms: _38  and  _40
REMARK   14  A    between atoms: _40  and  _41
REMARK   15  A    between atoms: _40  and  _42
REMARK   16  A    between atoms: _43  and  _45
REMARK                            x       y       z     vdW  Elec       q    Type
REMARK                         _______ _______ _______ _____ _____    ______ ____
ROOT
ATOM      1  C   UNL     1      -3.932   7.043  23.417  0.00  0.00    +0.401 C 
ATOM      2  O   UNL     1      -3.600   7.663  22.404  0.00  0.00    -0.226 OA
ATOM      3  N   UNL     1      -5.195   6.876  23.809  0.00  0.00    -0.279 N 
ATOM      4  H   UNL     1      -5.368   6.343  24.650  0.00  0.00    +0.152 HD
ENDROOT
BRANCH   3   5
ATOM      5  C   UNL     1      -6.351   7.423  23.087  0.00  0.00    +0.141 C 
BRANCH   5   6
ATOM      6  C   UNL     1      -6.815   8.749  23.680  0.00  0.00    +0.163 C 
BRANCH   6   7
ATOM      7  O   UNL     1      -6.154   8.986  24.933  0.00  0.00    -0.388 OA
ATOM      8  H   UNL     1      -6.022   9.930  25.053  0.00  0.00    +0.210 HD
ENDBRANCH   6   7
BRANCH   6   9
ATOM      9  C   UNL     1      -6.529   9.886  22.684  0.00  0.00    +0.175 C 
BRANCH   9  10
ATOM     10  C   UNL     1      -5.179  10.565  22.954  0.00  0.00    +0.176 C 
ATOM     11  O   UNL     1      -5.363  11.505  24.049  0.00  0.00    -0.332 OA
ATOM     12  C   UNL     1      -4.147  12.175  24.520  0.00  0.00    +0.277 C 
ATOM     13  C   UNL     1      -3.426  12.877  23.343  0.00  0.00    +0.110 C 
ATOM     14  C   UNL     1      -3.236  11.926  22.142  0.00  0.00    +0.143 C 
ATOM     15  C   UNL     1      -4.563  11.282  21.738  0.00  0.00    +0.133 C 
BRANCH  15  16
ATOM     16  N   UNL     1      -4.355  10.313  20.651  0.00  0.00    -0.308 N 
ATOM     17  H   UNL     1      -3.770   9.511  20.839  0.00  0.00    +0.149 HD
ATOM     18  C   UNL     1      -4.888  10.424  19.431  0.00  0.00    +0.210 C 
ATOM     19  C   UNL     1      -5.753  11.671  19.168  0.00  0.00    +0.109 C 
ATOM     20  O   UNL     1      -4.708   9.589  18.544  0.00  0.00    -0.276 OA
ENDBRANCH  15  16
BRANCH  12  21
ATOM     21  C   UNL     1      -3.187  11.166  25.183  0.00  0.00    +0.414 C 
ATOM     22  O   UNL     1      -2.036  11.496  25.463  0.00  0.00    -0.240 OA
ATOM     23  O   UNL     1      -3.565  10.021  25.439  0.00  0.00    -0.240 OA
ENDBRANCH  12  21
BRANCH  14  24
ATOM     24  O   UNL     1      -2.708  12.652  21.031  0.00  0.00    -0.390 OA
ATOM     25  H   UNL     1      -3.013  13.562  21.069  0.00  0.00    +0.210 HD
ENDBRANCH  14  24
BRANCH  12  26
ATOM     26  O   UNL     1      -4.537  13.186  25.485  0.00  0.00    -0.343 OA
ATOM     27  C   UNL     1      -5.966  13.311  25.697  0.00  0.00    +0.198 C 
ENDBRANCH  12  26
ENDBRANCH   9  10
BRANCH   9  28
ATOM     28  O   UNL     1      -7.592  10.859  22.722  0.00  0.00    -0.387 OA
ATOM     29  H   UNL     1      -7.832  11.035  23.635  0.00  0.00    +0.210 HD
ENDBRANCH   9  28
ENDBRANCH   6   9
ENDBRANCH   5   6
ENDBRANCH   3   5
BRANCH   1  30
ATOM     30  O   UNL     1      -2.916   6.455  24.234  0.00  0.00    -0.444 OA
BRANCH  30  31
ATOM     31  C   UNL     1      -3.500   5.973  25.448  0.00  0.00    +0.292 C 
BRANCH  31  33
ATOM     32  N   UNL     1      -1.840   7.328  26.674  0.00  0.00    -0.131 NA
ATOM     33  C   UNL     1      -3.100   6.821  26.588  0.00  0.00    +0.121 A 
ATOM     34  C   UNL     1      -3.829   7.252  27.673  0.00  0.00    +0.143 A 
ATOM     35  N   UNL     1      -2.951   7.996  28.436  0.00  0.00    -0.218 N 
ATOM     36  N   UNL     1      -1.758   8.039  27.790  0.00  0.00    -0.060 NA
BRANCH  35  37
ATOM     37  C   UNL     1      -3.157   8.638  29.696  0.00  0.00    +0.085 A 
ATOM     38  C   UNL     1      -3.403  10.057  29.754  0.00  0.00    +0.026 A 
ATOM     39  C   UNL     1      -3.568  10.594  31.046  0.00  0.00    +0.074 A 
ATOM     40  C   UNL     1      -3.808  11.947  31.229  0.00  0.00    +0.028 A 
ATOM     41  C   UNL     1      -3.904  12.835  30.163  0.00  0.00    +0.002 A 
ATOM     42  C   UNL     1      -3.784  12.348  28.877  0.00  0.00    +0.001 A 
ATOM     43  N   UNL     1      -3.532   9.867  32.161  0.00  0.00    -0.247 NA
ATOM     44  C   UNL     1      -3.334   8.551  32.101  0.00  0.00    +0.074 A 
ATOM     45  C   UNL     1      -3.313   7.891  33.325  0.00  0.00    +0.028 A 
ATOM     46  C   UNL     1      -3.080   6.524  33.428  0.00  0.00    +0.002 A 
ATOM     47  C   UNL     1      -2.849   5.796  32.278  0.00  0.00    +0.001 A 
ATOM     48  C   UNL     1      -2.861   6.446  31.040  0.00  0.00    +0.012 A 
ATOM     49  C   UNL     1      -3.560  10.982  28.674  0.00  0.00    +0.012 A 
ATOM     50  C   UNL     1      -3.125   7.847  30.904  0.00  0.00    +0.026 A 
ENDBRANCH  35  37
ENDBRANCH  31  33
ENDBRANCH  30  31
ENDBRANCH   1  30
TORSDOF 14
