REMARK VINA RESULT:    -4.903      2.937      5.926
REMARK INTER + INTRA:         -12.523
REMARK INTER:                  -8.904
REMARK INTRA:                  -3.619
REMARK UNBOUND:                -3.320
REMARK  Name = lig_assembled_16.pdb
REMARK  19 active torsions:
REMARK  status: ('A' for Active; 'I' for Inactive)
REMARK    1  A    between atoms: _2  and  _9
REMARK    2  A    between atoms: _4  and  _22
REMARK    3  A    between atoms: _6  and  _7
REMARK    4  A    between atoms: _6  and  _22
REMARK    5  A    between atoms: _9  and  _10
REMARK    6  A    between atoms: _13  and  _14
REMARK    7  A    between atoms: _14  and  _16
REMARK    8  A    between atoms: _18  and  _38
REMARK    9  A    between atoms: _20  and  _26
REMARK   10  A    between atoms: _21  and  _25
REMARK   11  A    between atoms: _25  and  _26
REMARK   12  A    between atoms: _28  and  _29
REMARK   13  A    between atoms: _30  and  _31
REMARK   14  A    between atoms: _32  and  _34
REMARK   15  A    between atoms: _34  and  _35
REMARK   16  A    between atoms: _34  and  _36
REMARK   17  A    between atoms: _36  and  _37
REMARK   18  A    between atoms: _36  and  _38
REMARK   19  A    between atoms: _39  and  _41
REMARK                            x       y       z     vdW  Elec       q    Type
REMARK                         _______ _______ _______ _____ _____    ______ ____
ROOT
ATOM      1  C   UNL     1      -3.127  11.468  22.211  0.00  0.00    +0.163 C 
ENDROOT
BRANCH   1   2
ATOM      2  O   UNL     1      -2.791  12.293  23.338  0.00  0.00    -0.388 OA
ATOM      3  H   UNL     1      -3.588  12.703  23.684  0.00  0.00    +0.210 HD
ENDBRANCH   1   2
BRANCH   1   4
ATOM      4  C   UNL     1      -3.922  10.228  22.654  0.00  0.00    +0.175 C 
BRANCH   4   5
ATOM      5  C   UNL     1      -4.074  10.154  24.181  0.00  0.00    +0.176 C 
ATOM      6  O   UNL     1      -3.085   9.214  24.684  0.00  0.00    -0.332 OA
ATOM      7  C   UNL     1      -3.010   9.092  26.143  0.00  0.00    +0.277 C 
ATOM      8  C   UNL     1      -4.402   8.751  26.729  0.00  0.00    +0.110 C 
ATOM      9  C   UNL     1      -5.493   9.705  26.198  0.00  0.00    +0.143 C 
ATOM     10  C   UNL     1      -5.479   9.757  24.670  0.00  0.00    +0.133 C 
BRANCH  10  11
ATOM     11  N   UNL     1      -6.464  10.734  24.179  0.00  0.00    -0.308 N 
ATOM     12  H   UNL     1      -6.338  11.702  24.439  0.00  0.00    +0.149 HD
ATOM     13  C   UNL     1      -7.514  10.425  23.414  0.00  0.00    +0.210 C 
ATOM     14  C   UNL     1      -7.693   8.937  23.057  0.00  0.00    +0.109 C 
ATOM     15  O   UNL     1      -8.314  11.266  23.005  0.00  0.00    -0.276 OA
ENDBRANCH  10  11
BRANCH   7  16
ATOM     16  C   UNL     1      -2.491  10.401  26.775  0.00  0.00    +0.414 C 
ATOM     17  O   UNL     1      -1.900  11.231  26.085  0.00  0.00    -0.240 OA
ATOM     18  O   UNL     1      -2.662  10.626  27.974  0.00  0.00    -0.240 OA
ENDBRANCH   7  16
BRANCH   7  19
ATOM     19  O   UNL     1      -2.102   8.005  26.457  0.00  0.00    -0.343 OA
ATOM     20  C   UNL     1      -2.583   6.684  26.100  0.00  0.00    +0.198 C 
ENDBRANCH   7  19
BRANCH   9  21
ATOM     21  O   UNL     1      -6.776   9.263  26.642  0.00  0.00    -0.390 OA
ATOM     22  H   UNL     1      -7.023   8.466  26.168  0.00  0.00    +0.210 HD
ENDBRANCH   9  21
ENDBRANCH   4   5
BRANCH   4  23
ATOM     23  O   UNL     1      -3.290   9.030  22.160  0.00  0.00    -0.387 OA
ATOM     24  H   UNL     1      -2.660   9.261  21.473  0.00  0.00    +0.210 HD
ENDBRANCH   4  23
ENDBRANCH   1   4
BRANCH   1  25
ATOM     25  C   UNL     1      -3.950  12.268  21.206  0.00  0.00    +0.141 C 
BRANCH  25  28
ATOM     26  C   UNL     1      -5.940  13.697  21.521  0.00  0.00    +0.401 C 
ATOM     27  O   UNL     1      -6.594  13.144  20.633  0.00  0.00    -0.226 OA
ATOM     28  N   UNL     1      -4.694  13.356  21.851  0.00  0.00    -0.279 N 
ATOM     29  H   UNL     1      -4.236  13.876  22.586  0.00  0.00    +0.152 HD
BRANCH  26  30
ATOM     30  O   UNL     1      -6.532  14.776  22.250  0.00  0.00    -0.444 OA
BRANCH  30  31
ATOM     31  C   UNL     1      -5.626  15.222  23.262  0.00  0.00    +0.292 C 
BRANCH  31  33
ATOM     32  N   UNL     1      -5.052  13.498  24.945  0.00  0.00    -0.131 NA
ATOM     33  C   UNL     1      -5.879  14.508  24.526  0.00  0.00    +0.120 A 
ATOM     34  C   UNL     1      -6.868  14.700  25.464  0.00  0.00    +0.137 A 
ATOM     35  N   UNL     1      -6.531  13.843  26.469  0.00  0.00    -0.247 N 
ATOM     36  N   UNL     1      -5.472  13.084  26.134  0.00  0.00    -0.065 NA
BRANCH  35  37
ATOM     37  C   UNL     1      -7.151  13.710  27.772  0.00  0.00    +0.180 C 
BRANCH  37  38
ATOM     38  C   UNL     1      -6.135  13.863  28.882  0.00  0.00    -0.026 A 
ATOM     39  C   UNL     1      -5.468  12.743  29.401  0.00  0.00    +0.006 A 
ATOM     40  C   UNL     1      -4.503  12.895  30.400  0.00  0.00    +0.015 A 
ATOM     41  C   UNL     1      -4.200  14.162  30.904  0.00  0.00    +0.059 A 
ATOM     42  C   UNL     1      -4.877  15.286  30.409  0.00  0.00    +0.015 A 
ATOM     43  C   UNL     1      -5.847  15.131  29.413  0.00  0.00    +0.006 A 
BRANCH  41  44
ATOM     44  C   UNL     1      -3.114  14.273  31.914  0.00  0.00    +0.337 C 
ATOM     45  O   UNL     1      -3.331  14.544  33.083  0.00  0.00    -0.245 OA
BRANCH  44  46
ATOM     46  O   UNL     1      -1.877  14.085  31.417  0.00  0.00    -0.477 OA
ATOM     47  H   UNL     1      -1.505  13.196  31.556  0.00  0.00    +0.295 HD
ENDBRANCH  44  46
ENDBRANCH  41  44
ENDBRANCH  37  38
ENDBRANCH  35  37
ENDBRANCH  31  33
ENDBRANCH  30  31
ENDBRANCH  26  30
ENDBRANCH  25  28
ENDBRANCH   1  25
TORSDOF 17
