REMARK VINA RESULT:    -5.184      4.187     11.113
REMARK INTER + INTRA:         -12.560
REMARK INTER:                  -9.676
REMARK INTRA:                  -2.884
REMARK UNBOUND:                -2.678
REMARK  Name = lig_assembled_26.pdb
REMARK  20 active torsions:
REMARK  status: ('A' for Active; 'I' for Inactive)
REMARK    1  A    between atoms: _2  and  _9
REMARK    2  A    between atoms: _4  and  _23
REMARK    3  A    between atoms: _6  and  _7
REMARK    4  A    between atoms: _6  and  _23
REMARK    5  A    between atoms: _9  and  _10
REMARK    6  A    between atoms: _9  and  _11
REMARK    7  A    between atoms: _11  and  _12
REMARK    8  A    between atoms: _12  and  _13
REMARK    9  A    between atoms: _19  and  _39
REMARK   10  A    between atoms: _21  and  _27
REMARK   11  A    between atoms: _22  and  _26
REMARK   12  A    between atoms: _26  and  _27
REMARK   13  A    between atoms: _29  and  _30
REMARK   14  A    between atoms: _31  and  _32
REMARK   15  A    between atoms: _33  and  _35
REMARK   16  A    between atoms: _35  and  _36
REMARK   17  A    between atoms: _35  and  _37
REMARK   18  A    between atoms: _37  and  _38
REMARK   19  A    between atoms: _37  and  _39
REMARK   20  A    between atoms: _40  and  _42
REMARK                            x       y       z     vdW  Elec       q    Type
REMARK                         _______ _______ _______ _____ _____    ______ ____
ROOT
ATOM      1  C   UNL     1      -4.412   9.002  23.876  0.00  0.00    +0.163 C 
ENDROOT
BRANCH   1   2
ATOM      2  O   UNL     1      -3.991   8.262  22.718  0.00  0.00    -0.388 OA
ATOM      3  H   UNL     1      -3.747   8.873  22.019  0.00  0.00    +0.210 HD
ENDBRANCH   1   2
BRANCH   1   4
ATOM      4  C   UNL     1      -5.788   9.649  23.645  0.00  0.00    +0.175 C 
BRANCH   4   5
ATOM      5  C   UNL     1      -5.682  10.970  22.868  0.00  0.00    +0.176 C 
ATOM      6  O   UNL     1      -5.340  10.652  21.491  0.00  0.00    -0.332 OA
ATOM      7  C   UNL     1      -5.299  11.790  20.569  0.00  0.00    +0.277 C 
ATOM      8  C   UNL     1      -4.346  12.887  21.105  0.00  0.00    +0.110 C 
ATOM      9  C   UNL     1      -4.652  13.236  22.577  0.00  0.00    +0.143 C 
ATOM     10  C   UNL     1      -4.673  11.979  23.446  0.00  0.00    +0.133 C 
BRANCH  10  11
ATOM     11  N   UNL     1      -5.051  12.314  24.828  0.00  0.00    -0.308 N 
ATOM     12  H   UNL     1      -6.022  12.519  25.015  0.00  0.00    +0.149 HD
ATOM     13  C   UNL     1      -4.193  12.366  25.851  0.00  0.00    +0.210 C 
ATOM     14  C   UNL     1      -2.716  12.075  25.528  0.00  0.00    +0.109 C 
ATOM     15  O   UNL     1      -4.541  12.635  27.002  0.00  0.00    -0.276 OA
ENDBRANCH  10  11
BRANCH   7  16
ATOM     16  C   UNL     1      -6.709  12.384  20.369  0.00  0.00    +0.414 C 
ATOM     17  O   UNL     1      -7.693  11.646  20.335  0.00  0.00    -0.240 OA
ATOM     18  O   UNL     1      -6.862  13.600  20.244  0.00  0.00    -0.240 OA
ENDBRANCH   7  16
BRANCH   7  19
ATOM     19  O   UNL     1      -4.783  11.319  19.297  0.00  0.00    -0.343 OA
ATOM     20  C   UNL     1      -5.051   9.924  19.006  0.00  0.00    +0.198 C 
ENDBRANCH   7  19
BRANCH   9  21
ATOM     21  O   UNL     1      -3.660  14.136  23.074  0.00  0.00    -0.390 OA
ATOM     22  H   UNL     1      -2.917  13.635  23.419  0.00  0.00    +0.210 HD
ENDBRANCH   9  21
ENDBRANCH   4   5
BRANCH   4  23
ATOM     23  O   UNL     1      -6.453   9.867  24.906  0.00  0.00    -0.387 OA
ATOM     24  H   UNL     1      -7.360  10.138  24.747  0.00  0.00    +0.210 HD
ENDBRANCH   4  23
ENDBRANCH   1   4
BRANCH   1  25
ATOM     25  C   UNL     1      -4.481   8.079  25.089  0.00  0.00    +0.141 C 
BRANCH  25  28
ATOM     26  C   UNL     1      -2.746   8.592  26.772  0.00  0.00    +0.401 C 
ATOM     27  O   UNL     1      -1.887   7.885  26.241  0.00  0.00    -0.226 OA
ATOM     28  N   UNL     1      -3.987   8.736  26.305  0.00  0.00    -0.279 N 
ATOM     29  H   UNL     1      -4.623   9.331  26.817  0.00  0.00    +0.152 HD
BRANCH  26  30
ATOM     30  O   UNL     1      -2.416   9.307  27.966  0.00  0.00    -0.444 OA
BRANCH  30  31
ATOM     31  C   UNL     1      -3.578   9.420  28.792  0.00  0.00    +0.292 C 
BRANCH  31  33
ATOM     32  N   UNL     1      -2.784   9.808  31.111  0.00  0.00    -0.131 NA
ATOM     33  C   UNL     1      -3.306  10.298  29.944  0.00  0.00    +0.120 A 
ATOM     34  C   UNL     1      -3.496  11.654  30.070  0.00  0.00    +0.137 A 
ATOM     35  N   UNL     1      -3.098  11.931  31.344  0.00  0.00    -0.248 N 
ATOM     36  N   UNL     1      -2.643  10.820  31.957  0.00  0.00    -0.065 NA
BRANCH  35  37
ATOM     37  C   UNL     1      -3.039  13.209  32.038  0.00  0.00    +0.113 C 
ATOM     38  C   UNL     1      -2.116  13.222  33.264  0.00  0.00    +0.033 C 
BRANCH  37  39
ATOM     39  C   UNL     1      -2.746  14.386  31.090  0.00  0.00    +0.106 C 
BRANCH  39  40
ATOM     40  C   UNL     1      -3.596  15.616  31.352  0.00  0.00    +0.165 C 
ATOM     41  O   UNL     1      -3.404  16.354  32.316  0.00  0.00    -0.292 OA
BRANCH  40  42
ATOM     42  C   UNL     1      -4.731  15.918  30.427  0.00  0.00    +0.017 A 
ATOM     43  C   UNL     1      -5.593  14.925  29.948  0.00  0.00    +0.011 A 
ATOM     44  C   UNL     1      -6.664  15.270  29.119  0.00  0.00    +0.001 A 
ATOM     45  C   UNL     1      -6.874  16.601  28.761  0.00  0.00    +0.000 A 
ATOM     46  C   UNL     1      -6.014  17.592  29.224  0.00  0.00    +0.001 A 
ATOM     47  C   UNL     1      -4.945  17.252  30.055  0.00  0.00    +0.011 A 
ENDBRANCH  40  42
ENDBRANCH  39  40
ENDBRANCH  37  39
ENDBRANCH  35  37
ENDBRANCH  31  33
ENDBRANCH  30  31
ENDBRANCH  26  30
ENDBRANCH  25  28
ENDBRANCH   1  25
TORSDOF 17
