REMARK VINA RESULT:    -4.784      2.333      9.277
REMARK INTER + INTRA:         -12.880
REMARK INTER:                 -10.210
REMARK INTRA:                  -2.669
REMARK UNBOUND:                -3.062
REMARK  Name = lig_assembled_74.pdb
REMARK  24 active torsions:
REMARK  status: ('A' for Active; 'I' for Inactive)
REMARK    1  A    between atoms: _2  and  _9
REMARK    2  A    between atoms: _4  and  _22
REMARK    3  A    between atoms: _5  and  _14
REMARK    4  A    between atoms: _6  and  _7
REMARK    5  A    between atoms: _6  and  _22
REMARK    6  A    between atoms: _9  and  _10
REMARK    7  A    between atoms: _10  and  _11
REMARK    8  A    between atoms: _10  and  _13
REMARK    9  A    between atoms: _11  and  _12
REMARK   10  A    between atoms: _12  and  _16
REMARK   11  A    between atoms: _13  and  _14
REMARK   12  A    between atoms: _14  and  _15
REMARK   13  A    between atoms: _18  and  _38
REMARK   14  A    between atoms: _20  and  _26
REMARK   15  A    between atoms: _21  and  _25
REMARK   16  A    between atoms: _25  and  _26
REMARK   17  A    between atoms: _28  and  _29
REMARK   18  A    between atoms: _30  and  _31
REMARK   19  A    between atoms: _32  and  _34
REMARK   20  A    between atoms: _34  and  _35
REMARK   21  A    between atoms: _34  and  _36
REMARK   22  A    between atoms: _36  and  _37
REMARK   23  A    between atoms: _36  and  _38
REMARK   24  A    between atoms: _39  and  _41
REMARK                            x       y       z     vdW  Elec       q    Type
REMARK                         _______ _______ _______ _____ _____    ______ ____
ROOT
ATOM      1  C   UNL     1      -4.304   8.992  23.539  0.00  0.00    +0.163 C 
ENDROOT
BRANCH   1   2
ATOM      2  O   UNL     1      -3.864   8.017  22.580  0.00  0.00    -0.388 OA
ATOM      3  H   UNL     1      -3.140   7.506  22.950  0.00  0.00    +0.210 HD
ENDBRANCH   1   2
BRANCH   1   4
ATOM      4  C   UNL     1      -5.699   9.530  23.177  0.00  0.00    +0.175 C 
BRANCH   4   5
ATOM      5  C   UNL     1      -5.629  10.668  22.148  0.00  0.00    +0.176 C 
ATOM      6  O   UNL     1      -5.253  10.092  20.867  0.00  0.00    -0.332 OA
ATOM      7  C   UNL     1      -5.240  11.021  19.733  0.00  0.00    +0.277 C 
ATOM      8  C   UNL     1      -4.337  12.240  20.043  0.00  0.00    +0.110 C 
ATOM      9  C   UNL     1      -4.679  12.868  21.411  0.00  0.00    +0.143 C 
ATOM     10  C   UNL     1      -4.667  11.813  22.518  0.00  0.00    +0.133 C 
BRANCH  10  11
ATOM     11  N   UNL     1      -5.078  12.406  23.800  0.00  0.00    -0.308 N 
ATOM     12  H   UNL     1      -6.060  12.601  23.936  0.00  0.00    +0.149 HD
ATOM     13  C   UNL     1      -4.239  12.704  24.795  0.00  0.00    +0.210 C 
ATOM     14  C   UNL     1      -2.746  12.420  24.546  0.00  0.00    +0.109 C 
ATOM     15  O   UNL     1      -4.614  13.187  25.864  0.00  0.00    -0.276 OA
ENDBRANCH  10  11
BRANCH   7  16
ATOM     16  C   UNL     1      -6.668  11.506  19.407  0.00  0.00    +0.414 C 
ATOM     17  O   UNL     1      -7.628  11.086  20.051  0.00  0.00    -0.240 OA
ATOM     18  O   UNL     1      -6.859  12.317  18.500  0.00  0.00    -0.240 OA
ENDBRANCH   7  16
BRANCH   9  19
ATOM     19  O   UNL     1      -3.729  13.888  21.723  0.00  0.00    -0.390 OA
ATOM     20  H   UNL     1      -3.155  14.034  20.968  0.00  0.00    +0.210 HD
ENDBRANCH   9  19
BRANCH   7  21
ATOM     21  O   UNL     1      -4.688  10.322  18.588  0.00  0.00    -0.343 OA
ATOM     22  C   UNL     1      -5.345   9.073  18.257  0.00  0.00    +0.198 C 
ENDBRANCH   7  21
ENDBRANCH   4   5
BRANCH   4  23
ATOM     23  O   UNL     1      -6.384   9.975  24.364  0.00  0.00    -0.387 OA
ATOM     24  H   UNL     1      -7.231  10.356  24.122  0.00  0.00    +0.210 HD
ENDBRANCH   4  23
ENDBRANCH   1   4
BRANCH   1  25
ATOM     25  C   UNL     1      -4.343   8.372  24.932  0.00  0.00    +0.141 C 
BRANCH  25  28
ATOM     26  C   UNL     1      -2.605   9.116  26.523  0.00  0.00    +0.401 C 
ATOM     27  O   UNL     1      -1.839   8.183  26.268  0.00  0.00    -0.226 OA
ATOM     28  N   UNL     1      -3.798   9.278  25.950  0.00  0.00    -0.279 N 
ATOM     29  H   UNL     1      -4.359  10.070  26.233  0.00  0.00    +0.152 HD
BRANCH  26  30
ATOM     30  O   UNL     1      -2.212  10.091  27.492  0.00  0.00    -0.444 OA
BRANCH  30  31
ATOM     31  C   UNL     1      -2.878   9.830  28.730  0.00  0.00    +0.292 C 
BRANCH  31  33
ATOM     32  N   UNL     1      -5.155  10.515  29.448  0.00  0.00    -0.131 NA
ATOM     33  C   UNL     1      -3.907  10.855  28.995  0.00  0.00    +0.120 A 
ATOM     34  C   UNL     1      -3.810  12.229  28.937  0.00  0.00    +0.137 A 
ATOM     35  N   UNL     1      -4.959  12.657  29.540  0.00  0.00    -0.251 N 
ATOM     36  N   UNL     1      -5.802  11.630  29.755  0.00  0.00    -0.065 NA
BRANCH  35  37
ATOM     37  C   UNL     1      -5.170  13.925  30.210  0.00  0.00    +0.149 C 
BRANCH  37  38
ATOM     38  C   UNL     1      -3.921  14.542  30.877  0.00  0.00    +0.021 C 
BRANCH  38  39
ATOM     39  C   UNL     1      -3.499  13.822  32.174  0.00  0.00    +0.125 C 
BRANCH  39  40
ATOM     40  C   UNL     1      -2.067  13.331  32.191  0.00  0.00    +0.305 C 
ATOM     41  O   UNL     1      -1.081  14.050  32.218  0.00  0.00    -0.251 OA
BRANCH  40  42
ATOM     42  O   UNL     1      -1.972  11.989  32.239  0.00  0.00    -0.481 OA
ATOM     43  H   UNL     1      -2.797  11.503  32.061  0.00  0.00    +0.295 HD
ENDBRANCH  40  42
ENDBRANCH  39  40
ENDBRANCH  38  39
BRANCH  38  44
ATOM     44  C   UNL     1      -4.152  16.069  31.075  0.00  0.00    +0.009 C 
BRANCH  44  45
ATOM     45  C   UNL     1      -4.277  16.548  32.536  0.00  0.00    -0.017 C 
ATOM     46  C   UNL     1      -3.513  17.850  32.786  0.00  0.00    +0.007 C 
ATOM     47  C   UNL     1      -5.749  16.754  32.911  0.00  0.00    +0.007 C 
ENDBRANCH  44  45
ENDBRANCH  38  44
ENDBRANCH  37  38
ENDBRANCH  35  37
ENDBRANCH  31  33
ENDBRANCH  30  31
ENDBRANCH  26  30
ENDBRANCH  25  28
ENDBRANCH   1  25
TORSDOF 20
