REMARK VINA RESULT:    -4.130      2.378      6.053
REMARK INTER + INTRA:         -11.008
REMARK INTER:                  -7.324
REMARK INTRA:                  -3.684
REMARK UNBOUND:                -2.894
REMARK  Name = lig_assembled_17.pdb
REMARK  22 active torsions:
REMARK  status: ('A' for Active; 'I' for Inactive)
REMARK    1  A    between atoms: _2  and  _10
REMARK    2  A    between atoms: _3  and  _11
REMARK    3  A    between atoms: _3  and  _12
REMARK    4  A    between atoms: _3  and  _14
REMARK    5  A    between atoms: _5  and  _19
REMARK    6  A    between atoms: _6  and  _14
REMARK    7  A    between atoms: _7  and  _8
REMARK    8  A    between atoms: _7  and  _19
REMARK    9  A    between atoms: _10  and  _11
REMARK   10  A    between atoms: _12  and  _13
REMARK   11  A    between atoms: _15  and  _35
REMARK   12  A    between atoms: _17  and  _23
REMARK   13  A    between atoms: _18  and  _22
REMARK   14  A    between atoms: _22  and  _23
REMARK   15  A    between atoms: _25  and  _26
REMARK   16  A    between atoms: _27  and  _28
REMARK   17  A    between atoms: _29  and  _31
REMARK   18  A    between atoms: _31  and  _32
REMARK   19  A    between atoms: _31  and  _33
REMARK   20  A    between atoms: _33  and  _34
REMARK   21  A    between atoms: _33  and  _35
REMARK   22  A    between atoms: _36  and  _38
REMARK                            x       y       z     vdW  Elec       q    Type
REMARK                         _______ _______ _______ _____ _____    ______ ____
ROOT
ATOM      1  C   UNL     1      -2.251  10.175  27.102  0.00  0.00    +0.163 C 
ENDROOT
BRANCH   1   2
ATOM      2  O   UNL     1      -2.550   9.477  25.882  0.00  0.00    -0.388 OA
ATOM      3  H   UNL     1      -1.757   9.040  25.560  0.00  0.00    +0.210 HD
ENDBRANCH   1   2
BRANCH   1   4
ATOM      4  C   UNL     1      -3.446  11.033  27.551  0.00  0.00    +0.175 C 
BRANCH   4   5
ATOM      5  C   UNL     1      -4.276  11.536  26.361  0.00  0.00    +0.176 C 
ATOM      6  O   UNL     1      -3.372  12.191  25.429  0.00  0.00    -0.332 OA
ATOM      7  C   UNL     1      -3.976  12.645  24.173  0.00  0.00    +0.277 C 
ATOM      8  C   UNL     1      -5.191  13.563  24.457  0.00  0.00    +0.110 C 
ATOM      9  C   UNL     1      -6.165  12.921  25.467  0.00  0.00    +0.143 C 
ATOM     10  C   UNL     1      -5.431  12.483  26.735  0.00  0.00    +0.133 C 
BRANCH  10  11
ATOM     11  N   UNL     1      -6.353  11.796  27.653  0.00  0.00    -0.308 N 
ATOM     12  H   UNL     1      -6.750  10.917  27.352  0.00  0.00    +0.149 HD
ATOM     13  C   UNL     1      -6.699  12.257  28.858  0.00  0.00    +0.210 C 
ATOM     14  C   UNL     1      -6.098  13.612  29.277  0.00  0.00    +0.109 C 
ATOM     15  O   UNL     1      -7.463  11.653  29.611  0.00  0.00    -0.276 OA
ENDBRANCH  10  11
BRANCH   7  16
ATOM     16  C   UNL     1      -4.427  11.443  23.317  0.00  0.00    +0.414 C 
ATOM     17  O   UNL     1      -5.482  11.492  22.686  0.00  0.00    -0.240 OA
ATOM     18  O   UNL     1      -3.736  10.426  23.257  0.00  0.00    -0.240 OA
ENDBRANCH   7  16
BRANCH   9  19
ATOM     19  O   UNL     1      -7.186  13.858  25.814  0.00  0.00    -0.390 OA
ATOM     20  H   UNL     1      -8.016  13.592  25.412  0.00  0.00    +0.210 HD
ENDBRANCH   9  19
BRANCH   7  21
ATOM     21  O   UNL     1      -2.982  13.414  23.449  0.00  0.00    -0.343 OA
ATOM     22  C   UNL     1      -3.518  14.363  22.493  0.00  0.00    +0.198 C 
ENDBRANCH   7  21
ENDBRANCH   4   5
BRANCH   4  23
ATOM     23  O   UNL     1      -2.987  12.148  28.342  0.00  0.00    -0.387 OA
ATOM     24  H   UNL     1      -3.707  12.771  28.465  0.00  0.00    +0.210 HD
ENDBRANCH   4  23
ENDBRANCH   1   4
BRANCH   1  25
ATOM     25  C   UNL     1      -1.898   9.178  28.201  0.00  0.00    +0.141 C 
BRANCH  25  28
ATOM     26  C   UNL     1      -2.780   8.689  30.456  0.00  0.00    +0.401 C 
ATOM     27  O   UNL     1      -2.615   7.471  30.359  0.00  0.00    -0.226 OA
ATOM     28  N   UNL     1      -2.477   9.561  29.494  0.00  0.00    -0.279 N 
ATOM     29  H   UNL     1      -2.657  10.541  29.664  0.00  0.00    +0.152 HD
BRANCH  26  30
ATOM     30  O   UNL     1      -3.330   9.221  31.664  0.00  0.00    -0.444 OA
BRANCH  30  31
ATOM     31  C   UNL     1      -4.465  10.034  31.354  0.00  0.00    +0.292 C 
BRANCH  31  33
ATOM     32  N   UNL     1      -3.193  12.150  31.233  0.00  0.00    -0.131 NA
ATOM     33  C   UNL     1      -4.223  11.427  31.773  0.00  0.00    +0.120 A 
ATOM     34  C   UNL     1      -4.904  12.215  32.675  0.00  0.00    +0.137 A 
ATOM     35  N   UNL     1      -4.250  13.408  32.621  0.00  0.00    -0.250 N 
ATOM     36  N   UNL     1      -3.216  13.364  31.763  0.00  0.00    -0.065 NA
BRANCH  35  37
ATOM     37  C   UNL     1      -4.566  14.642  33.312  0.00  0.00    +0.160 C 
BRANCH  37  38
ATOM     38  C   UNL     1      -5.413  15.559  32.418  0.00  0.00    +0.107 C 
BRANCH  38  39
ATOM     39  N   UNL     1      -4.791  16.850  32.035  0.00  0.00    -0.301 NA
BRANCH  39  40
ATOM     40  C   UNL     1      -3.434  17.029  32.582  0.00  0.00    +0.081 C 
ATOM     41  C   UNL     1      -3.157  18.350  33.294  0.00  0.00    +0.020 C 
ENDBRANCH  39  40
BRANCH  39  42
ATOM     42  C   UNL     1      -4.853  16.990  30.565  0.00  0.00    +0.081 C 
ATOM     43  C   UNL     1      -4.878  18.428  30.058  0.00  0.00    +0.020 C 
ENDBRANCH  39  42
ENDBRANCH  38  39
ENDBRANCH  37  38
ENDBRANCH  35  37
ENDBRANCH  31  33
ENDBRANCH  30  31
ENDBRANCH  26  30
ENDBRANCH  25  28
ENDBRANCH   1  25
TORSDOF 18
