REMARK VINA RESULT:    -5.129      8.076     10.434
REMARK INTER + INTRA:         -10.714
REMARK INTER:                  -8.174
REMARK INTRA:                  -2.540
REMARK UNBOUND:                -1.837
REMARK  Name = lig_assembled_2.pdb
REMARK  16 active torsions:
REMARK  status: ('A' for Active; 'I' for Inactive)
REMARK    1  A    between atoms: _2  and  _9
REMARK    2  A    between atoms: _4  and  _18
REMARK    3  A    between atoms: _6  and  _7
REMARK    4  A    between atoms: _6  and  _18
REMARK    5  A    between atoms: _14  and  _34
REMARK    6  A    between atoms: _16  and  _22
REMARK    7  A    between atoms: _17  and  _21
REMARK    8  A    between atoms: _21  and  _22
REMARK    9  A    between atoms: _24  and  _25
REMARK   10  A    between atoms: _26  and  _27
REMARK   11  A    between atoms: _28  and  _30
REMARK   12  A    between atoms: _30  and  _31
REMARK   13  A    between atoms: _30  and  _32
REMARK   14  A    between atoms: _32  and  _33
REMARK   15  A    between atoms: _32  and  _34
REMARK   16  A    between atoms: _35  and  _37
REMARK                            x       y       z     vdW  Elec       q    Type
REMARK                         _______ _______ _______ _____ _____    ______ ____
ROOT
ATOM      1  C   UNL     1      -3.944  13.414  22.638  0.00  0.00    +0.163 C 
ENDROOT
BRANCH   1   2
ATOM      2  O   UNL     1      -2.828  14.292  22.416  0.00  0.00    -0.388 OA
ATOM      3  H   UNL     1      -3.080  15.192  22.633  0.00  0.00    +0.210 HD
ENDBRANCH   1   2
BRANCH   1   4
ATOM      4  C   UNL     1      -3.555  11.979  22.299  0.00  0.00    +0.141 C 
BRANCH   4   7
ATOM      5  C   UNL     1      -4.034   9.693  23.104  0.00  0.00    +0.401 C 
ATOM      6  O   UNL     1      -3.233   9.153  22.337  0.00  0.00    -0.226 OA
ATOM      7  N   UNL     1      -4.253  11.007  23.150  0.00  0.00    -0.279 N 
ATOM      8  H   UNL     1      -4.938  11.354  23.807  0.00  0.00    +0.152 HD
BRANCH   5   9
ATOM      9  O   UNL     1      -4.789   8.878  24.006  0.00  0.00    -0.444 OA
BRANCH   9  10
ATOM     10  C   UNL     1      -3.911   7.972  24.680  0.00  0.00    +0.292 C 
BRANCH  10  12
ATOM     11  N   UNL     1      -2.084   8.472  26.272  0.00  0.00    -0.131 NA
ATOM     12  C   UNL     1      -3.398   8.584  25.920  0.00  0.00    +0.121 A 
ATOM     13  C   UNL     1      -4.058   9.324  26.875  0.00  0.00    +0.143 A 
ATOM     14  N   UNL     1      -3.088   9.671  27.787  0.00  0.00    -0.220 N 
ATOM     15  N   UNL     1      -1.905   9.129  27.410  0.00  0.00    -0.060 NA
BRANCH  14  16
ATOM     16  C   UNL     1      -3.208  10.486  28.944  0.00  0.00    +0.067 A 
ATOM     17  C   UNL     1      -2.903   9.981  30.216  0.00  0.00    +0.029 A 
ATOM     18  C   UNL     1      -3.064  10.790  31.347  0.00  0.00    +0.022 A 
ATOM     19  C   UNL     1      -3.526  12.097  31.211  0.00  0.00    +0.041 A 
ATOM     20 CL   UNL     1      -3.742  13.075  32.609  0.00  0.00    -0.084 Cl
ATOM     21  C   UNL     1      -3.817  12.612  29.950  0.00  0.00    +0.022 A 
ATOM     22  C   UNL     1      -3.658  11.811  28.816  0.00  0.00    +0.029 A 
ENDBRANCH  14  16
ENDBRANCH  10  12
ENDBRANCH   9  10
ENDBRANCH   5   9
ENDBRANCH   4   7
ENDBRANCH   1   4
BRANCH   1  23
ATOM     23  C   UNL     1      -5.153  13.834  21.784  0.00  0.00    +0.175 C 
BRANCH  23  24
ATOM     24  C   UNL     1      -5.844  15.089  22.338  0.00  0.00    +0.176 C 
ATOM     25  O   UNL     1      -4.995  16.233  22.043  0.00  0.00    -0.332 OA
ATOM     26  C   UNL     1      -5.547  17.542  22.408  0.00  0.00    +0.277 C 
ATOM     27  C   UNL     1      -5.952  17.561  23.902  0.00  0.00    +0.110 C 
ATOM     28  C   UNL     1      -6.829  16.346  24.270  0.00  0.00    +0.143 C 
ATOM     29  C   UNL     1      -6.161  15.038  23.844  0.00  0.00    +0.133 C 
BRANCH  29  30
ATOM     30  N   UNL     1      -7.045  13.895  24.121  0.00  0.00    -0.308 N 
ATOM     31  H   UNL     1      -7.882  13.800  23.564  0.00  0.00    +0.149 HD
ATOM     32  C   UNL     1      -6.812  12.974  25.060  0.00  0.00    +0.210 C 
ATOM     33  C   UNL     1      -5.540  13.161  25.909  0.00  0.00    +0.109 C 
ATOM     34  O   UNL     1      -7.562  12.018  25.261  0.00  0.00    -0.276 OA
ENDBRANCH  29  30
BRANCH  26  35
ATOM     35  C   UNL     1      -6.775  17.880  21.536  0.00  0.00    +0.414 C 
ATOM     36  O   UNL     1      -7.716  18.515  22.011  0.00  0.00    -0.240 OA
ATOM     37  O   UNL     1      -6.824  17.518  20.360  0.00  0.00    -0.240 OA
ENDBRANCH  26  35
BRANCH  28  38
ATOM     38  O   UNL     1      -7.052  16.323  25.681  0.00  0.00    -0.390 OA
ATOM     39  H   UNL     1      -6.285  16.683  26.132  0.00  0.00    +0.210 HD
ENDBRANCH  28  38
BRANCH  26  40
ATOM     40  O   UNL     1      -4.513  18.538  22.201  0.00  0.00    -0.343 OA
ATOM     41  C   UNL     1      -3.394  18.100  21.390  0.00  0.00    +0.198 C 
ENDBRANCH  26  40
ENDBRANCH  23  24
BRANCH  23  42
ATOM     42  O   UNL     1      -6.096  12.749  21.690  0.00  0.00    -0.387 OA
ATOM     43  H   UNL     1      -6.466  12.570  22.558  0.00  0.00    +0.210 HD
ENDBRANCH  23  42
ENDBRANCH   1  23
TORSDOF 14
