REMARK VINA RESULT:    -5.273      7.952     11.025
REMARK INTER + INTRA:         -10.962
REMARK INTER:                  -8.709
REMARK INTRA:                  -2.253
REMARK UNBOUND:                -1.837
REMARK  Name = lig_assembled_2.pdb
REMARK  16 active torsions:
REMARK  status: ('A' for Active; 'I' for Inactive)
REMARK    1  A    between atoms: _2  and  _9
REMARK    2  A    between atoms: _4  and  _18
REMARK    3  A    between atoms: _6  and  _7
REMARK    4  A    between atoms: _6  and  _18
REMARK    5  A    between atoms: _14  and  _34
REMARK    6  A    between atoms: _16  and  _22
REMARK    7  A    between atoms: _17  and  _21
REMARK    8  A    between atoms: _21  and  _22
REMARK    9  A    between atoms: _24  and  _25
REMARK   10  A    between atoms: _26  and  _27
REMARK   11  A    between atoms: _28  and  _30
REMARK   12  A    between atoms: _30  and  _31
REMARK   13  A    between atoms: _30  and  _32
REMARK   14  A    between atoms: _32  and  _33
REMARK   15  A    between atoms: _32  and  _34
REMARK   16  A    between atoms: _35  and  _37
REMARK                            x       y       z     vdW  Elec       q    Type
REMARK                         _______ _______ _______ _____ _____    ______ ____
ROOT
ATOM      1  C   UNL     1      -4.244   9.097  23.898  0.00  0.00    +0.163 C 
ENDROOT
BRANCH   1   2
ATOM      2  O   UNL     1      -3.756   8.366  22.761  0.00  0.00    -0.388 OA
ATOM      3  H   UNL     1      -3.557   7.463  23.021  0.00  0.00    +0.210 HD
ENDBRANCH   1   2
BRANCH   1   4
ATOM      4  C   UNL     1      -4.309   8.183  25.117  0.00  0.00    +0.141 C 
BRANCH   4   7
ATOM      5  C   UNL     1      -2.579   8.672  26.812  0.00  0.00    +0.401 C 
ATOM      6  O   UNL     1      -1.738   7.926  26.305  0.00  0.00    -0.226 OA
ATOM      7  N   UNL     1      -3.809   8.847  26.327  0.00  0.00    -0.279 N 
ATOM      8  H   UNL     1      -4.431   9.472  26.819  0.00  0.00    +0.152 HD
BRANCH   5   9
ATOM      9  O   UNL     1      -2.240   9.399  27.996  0.00  0.00    -0.444 OA
BRANCH   9  10
ATOM     10  C   UNL     1      -3.223   9.154  29.005  0.00  0.00    +0.292 C 
BRANCH  10  12
ATOM     11  N   UNL     1      -2.581   9.975  31.249  0.00  0.00    -0.131 NA
ATOM     12  C   UNL     1      -3.168  10.205  30.039  0.00  0.00    +0.121 A 
ATOM     13  C   UNL     1      -3.635  11.500  30.004  0.00  0.00    +0.143 A 
ATOM     14  N   UNL     1      -3.280  12.037  31.220  0.00  0.00    -0.220 N 
ATOM     15  N   UNL     1      -2.659  11.090  31.963  0.00  0.00    -0.060 NA
BRANCH  14  16
ATOM     16  C   UNL     1      -3.464  13.364  31.691  0.00  0.00    +0.067 A 
ATOM     17  C   UNL     1      -3.661  14.426  30.798  0.00  0.00    +0.029 A 
ATOM     18  C   UNL     1      -3.803  15.731  31.282  0.00  0.00    +0.022 A 
ATOM     19  C   UNL     1      -3.750  15.977  32.652  0.00  0.00    +0.041 A 
ATOM     20 CL   UNL     1      -3.903  17.588  33.235  0.00  0.00    -0.084 Cl
ATOM     21  C   UNL     1      -3.570  14.927  33.549  0.00  0.00    +0.022 A 
ATOM     22  C   UNL     1      -3.428  13.621  33.073  0.00  0.00    +0.029 A 
ENDBRANCH  14  16
ENDBRANCH  10  12
ENDBRANCH   9  10
ENDBRANCH   5   9
ENDBRANCH   4   7
ENDBRANCH   1   4
BRANCH   1  23
ATOM     23  C   UNL     1      -5.639   9.681  23.619  0.00  0.00    +0.175 C 
BRANCH  23  24
ATOM     24  C   UNL     1      -5.567  10.998  22.832  0.00  0.00    +0.176 C 
ATOM     25  O   UNL     1      -5.233  10.677  21.453  0.00  0.00    -0.332 OA
ATOM     26  C   UNL     1      -5.224  11.810  20.523  0.00  0.00    +0.277 C 
ATOM     27  C   UNL     1      -4.288  12.929  21.042  0.00  0.00    +0.110 C 
ATOM     28  C   UNL     1      -4.584  13.282  22.514  0.00  0.00    +0.143 C 
ATOM     29  C   UNL     1      -4.572  12.031  23.392  0.00  0.00    +0.133 C 
BRANCH  29  30
ATOM     30  N   UNL     1      -4.941  12.368  24.776  0.00  0.00    -0.308 N 
ATOM     31  H   UNL     1      -5.907  12.598  24.964  0.00  0.00    +0.149 HD
ATOM     32  C   UNL     1      -4.083  12.390  25.800  0.00  0.00    +0.210 C 
ATOM     33  C   UNL     1      -2.614  12.060  25.476  0.00  0.00    +0.109 C 
ATOM     34  O   UNL     1      -4.424  12.662  26.952  0.00  0.00    -0.276 OA
ENDBRANCH  29  30
BRANCH  26  35
ATOM     35  C   UNL     1      -6.648  12.375  20.335  0.00  0.00    +0.414 C 
ATOM     36  O   UNL     1      -6.821  13.585  20.192  0.00  0.00    -0.240 OA
ATOM     37  O   UNL     1      -7.622  11.622  20.327  0.00  0.00    -0.240 OA
ENDBRANCH  26  35
BRANCH  28  38
ATOM     38  O   UNL     1      -3.605  14.204  22.995  0.00  0.00    -0.390 OA
ATOM     39  H   UNL     1      -3.651  14.250  23.953  0.00  0.00    +0.210 HD
ENDBRANCH  28  38
BRANCH  26  40
ATOM     40  O   UNL     1      -4.713  11.341  19.249  0.00  0.00    -0.343 OA
ATOM     41  C   UNL     1      -4.922   9.930  18.988  0.00  0.00    +0.198 C 
ENDBRANCH  26  40
ENDBRANCH  23  24
BRANCH  23  42
ATOM     42  O   UNL     1      -6.351   9.881  24.856  0.00  0.00    -0.387 OA
ATOM     43  H   UNL     1      -7.285  10.004  24.673  0.00  0.00    +0.210 HD
ENDBRANCH  23  42
ENDBRANCH   1  23
TORSDOF 14
