REMARK VINA RESULT:    -3.989      4.260      5.723
REMARK INTER + INTRA:         -11.118
REMARK INTER:                  -7.546
REMARK INTRA:                  -3.573
REMARK UNBOUND:                -3.049
REMARK  Name = lig_assembled_45.pdb
REMARK  24 active torsions:
REMARK  status: ('A' for Active; 'I' for Inactive)
REMARK    1  A    between atoms: _2  and  _10
REMARK    2  A    between atoms: _3  and  _12
REMARK    3  A    between atoms: _3  and  _13
REMARK    4  A    between atoms: _3  and  _14
REMARK    5  A    between atoms: _3  and  _16
REMARK    6  A    between atoms: _5  and  _21
REMARK    7  A    between atoms: _6  and  _16
REMARK    8  A    between atoms: _7  and  _8
REMARK    9  A    between atoms: _7  and  _21
REMARK   10  A    between atoms: _10  and  _11
REMARK   11  A    between atoms: _11  and  _12
REMARK   12  A    between atoms: _14  and  _15
REMARK   13  A    between atoms: _17  and  _37
REMARK   14  A    between atoms: _19  and  _25
REMARK   15  A    between atoms: _20  and  _24
REMARK   16  A    between atoms: _24  and  _25
REMARK   17  A    between atoms: _27  and  _28
REMARK   18  A    between atoms: _29  and  _30
REMARK   19  A    between atoms: _31  and  _33
REMARK   20  A    between atoms: _33  and  _34
REMARK   21  A    between atoms: _33  and  _35
REMARK   22  A    between atoms: _35  and  _36
REMARK   23  A    between atoms: _35  and  _37
REMARK   24  A    between atoms: _38  and  _40
REMARK                            x       y       z     vdW  Elec       q    Type
REMARK                         _______ _______ _______ _____ _____    ______ ____
ROOT
ATOM      1  C   UNL     1      -3.956  11.747  28.336  0.00  0.00    +0.163 C 
ENDROOT
BRANCH   1   2
ATOM      2  O   UNL     1      -4.632  12.061  27.108  0.00  0.00    -0.388 OA
ATOM      3  H   UNL     1      -4.071  12.625  26.569  0.00  0.00    +0.210 HD
ENDBRANCH   1   2
BRANCH   1   4
ATOM      4  C   UNL     1      -4.961  11.354  29.432  0.00  0.00    +0.175 C 
BRANCH   4   5
ATOM      5  C   UNL     1      -4.342  10.411  30.474  0.00  0.00    +0.176 C 
ATOM      6  O   UNL     1      -5.319   9.378  30.780  0.00  0.00    -0.332 OA
ATOM      7  C   UNL     1      -4.860   8.320  31.685  0.00  0.00    +0.277 C 
ATOM      8  C   UNL     1      -4.315   8.931  33.000  0.00  0.00    +0.110 C 
ATOM      9  C   UNL     1      -3.295  10.056  32.724  0.00  0.00    +0.143 C 
ATOM     10  C   UNL     1      -3.875  11.100  31.770  0.00  0.00    +0.133 C 
BRANCH  10  11
ATOM     11  N   UNL     1      -2.864  12.120  31.447  0.00  0.00    -0.308 N 
ATOM     12  H   UNL     1      -2.027  11.820  30.968  0.00  0.00    +0.149 HD
ATOM     13  C   UNL     1      -2.982  13.417  31.746  0.00  0.00    +0.210 C 
ATOM     14  C   UNL     1      -4.257  13.838  32.499  0.00  0.00    +0.109 C 
ATOM     15  O   UNL     1      -2.126  14.252  31.450  0.00  0.00    -0.276 OA
ENDBRANCH  10  11
BRANCH   7  16
ATOM     16  C   UNL     1      -3.761   7.468  31.018  0.00  0.00    +0.414 C 
ATOM     17  O   UNL     1      -3.728   7.347  29.794  0.00  0.00    -0.240 OA
ATOM     18  O   UNL     1      -2.908   6.902  31.703  0.00  0.00    -0.240 OA
ENDBRANCH   7  16
BRANCH   9  19
ATOM     19  O   UNL     1      -2.934  10.690  33.952  0.00  0.00    -0.390 OA
ATOM     20  H   UNL     1      -3.647  11.266  34.238  0.00  0.00    +0.210 HD
ENDBRANCH   9  19
BRANCH   7  21
ATOM     21  O   UNL     1      -5.999   7.482  32.009  0.00  0.00    -0.343 OA
ATOM     22  C   UNL     1      -7.203   7.765  31.252  0.00  0.00    +0.198 C 
ENDBRANCH   7  21
ENDBRANCH   4   5
BRANCH   4  23
ATOM     23  O   UNL     1      -6.126  10.744  28.841  0.00  0.00    -0.387 OA
ATOM     24  H   UNL     1      -6.806  10.636  29.511  0.00  0.00    +0.210 HD
ENDBRANCH   4  23
ENDBRANCH   1   4
BRANCH   1  25
ATOM     25  C   UNL     1      -2.973  10.603  28.113  0.00  0.00    +0.141 C 
BRANCH  25  28
ATOM     26  C   UNL     1      -2.933   8.640  26.612  0.00  0.00    +0.401 C 
ATOM     27  O   UNL     1      -1.729   8.736  26.364  0.00  0.00    -0.226 OA
ATOM     28  N   UNL     1      -3.597   9.472  27.414  0.00  0.00    -0.279 N 
ATOM     29  H   UNL     1      -4.587   9.317  27.549  0.00  0.00    +0.152 HD
BRANCH  26  30
ATOM     30  O   UNL     1      -3.683   7.580  26.012  0.00  0.00    -0.444 OA
BRANCH  30  31
ATOM     31  C   UNL     1      -5.079   7.795  26.240  0.00  0.00    +0.292 C 
BRANCH  31  33
ATOM     32  N   UNL     1      -6.136  10.002  25.836  0.00  0.00    -0.131 NA
ATOM     33  C   UNL     1      -5.586   8.849  25.342  0.00  0.00    +0.120 A 
ATOM     34  C   UNL     1      -5.616   8.891  23.966  0.00  0.00    +0.137 A 
ATOM     35  N   UNL     1      -6.193  10.094  23.699  0.00  0.00    -0.251 N 
ATOM     36  N   UNL     1      -6.511  10.758  24.812  0.00  0.00    -0.065 NA
BRANCH  35  37
ATOM     37  C   UNL     1      -6.490  10.654  22.396  0.00  0.00    +0.150 C 
BRANCH  37  38
ATOM     38  C   UNL     1      -6.107  12.124  22.282  0.00  0.00    +0.074 C 
BRANCH  38  39
ATOM     39  C   UNL     1      -4.607  12.445  22.221  0.00  0.00    +0.134 C 
BRANCH  39  40
ATOM     40  N   UNL     1      -4.043  13.503  23.225  0.00  0.00    +0.241 N 
ATOM     41  C   UNL     1      -5.207  14.060  24.064  0.00  0.00    +0.192 C 
BRANCH  40  42
ATOM     42  C   UNL     1      -3.464  14.664  22.350  0.00  0.00    +0.129 C 
ATOM     43  C   UNL     1      -4.392  15.867  22.223  0.00  0.00    +0.060 C 
ENDBRANCH  40  42
BRANCH  40  44
ATOM     44  C   UNL     1      -2.952  12.975  24.175  0.00  0.00    +0.129 C 
ATOM     45  C   UNL     1      -2.880  11.460  24.262  0.00  0.00    +0.060 C 
ENDBRANCH  40  44
ENDBRANCH  39  40
ENDBRANCH  38  39
ENDBRANCH  37  38
ENDBRANCH  35  37
ENDBRANCH  31  33
ENDBRANCH  30  31
ENDBRANCH  26  30
ENDBRANCH  25  28
ENDBRANCH   1  25
TORSDOF 19
