REMARK VINA RESULT:    -5.481      4.042      7.311
REMARK INTER + INTRA:         -13.127
REMARK INTER:                  -9.078
REMARK INTRA:                  -4.049
REMARK UNBOUND:                -2.840
REMARK  Name = lig_assembled_77.pdb
REMARK  19 active torsions:
REMARK  status: ('A' for Active; 'I' for Inactive)
REMARK    1  A    between atoms: _2  and  _10
REMARK    2  A    between atoms: _3  and  _17
REMARK    3  A    between atoms: _5  and  _27
REMARK    4  A    between atoms: _7  and  _8
REMARK    5  A    between atoms: _7  and  _27
REMARK    6  A    between atoms: _13  and  _47
REMARK    7  A    between atoms: _14  and  _47
REMARK    8  A    between atoms: _23  and  _43
REMARK    9  A    between atoms: _25  and  _31
REMARK   10  A    between atoms: _26  and  _30
REMARK   11  A    between atoms: _30  and  _31
REMARK   12  A    between atoms: _33  and  _34
REMARK   13  A    between atoms: _35  and  _36
REMARK   14  A    between atoms: _37  and  _39
REMARK   15  A    between atoms: _39  and  _40
REMARK   16  A    between atoms: _39  and  _41
REMARK   17  A    between atoms: _41  and  _42
REMARK   18  A    between atoms: _41  and  _43
REMARK   19  A    between atoms: _44  and  _46
REMARK                            x       y       z     vdW  Elec       q    Type
REMARK                         _______ _______ _______ _____ _____    ______ ____
ROOT
ATOM      1  C   UNL     1      -3.138   9.019  29.210  0.00  0.00    +0.401 C 
ATOM      2  O   UNL     1      -4.269   8.633  29.515  0.00  0.00    -0.226 OA
ATOM      3  N   UNL     1      -2.777  10.302  29.159  0.00  0.00    -0.279 N 
ATOM      4  H   UNL     1      -1.823  10.519  28.907  0.00  0.00    +0.152 HD
ENDROOT
BRANCH   3   5
ATOM      5  C   UNL     1      -3.688  11.417  29.448  0.00  0.00    +0.141 C 
BRANCH   5   6
ATOM      6  C   UNL     1      -3.992  12.240  28.200  0.00  0.00    +0.163 C 
BRANCH   6   7
ATOM      7  O   UNL     1      -2.879  12.188  27.293  0.00  0.00    -0.388 OA
ATOM      8  H   UNL     1      -3.086  12.692  26.502  0.00  0.00    +0.210 HD
ENDBRANCH   6   7
BRANCH   6   9
ATOM      9  C   UNL     1      -5.272  11.706  27.533  0.00  0.00    +0.175 C 
BRANCH   9  10
ATOM     10  C   UNL     1      -6.178  12.840  27.032  0.00  0.00    +0.176 C 
ATOM     11  O   UNL     1      -5.598  13.368  25.807  0.00  0.00    -0.332 OA
ATOM     12  C   UNL     1      -6.389  14.396  25.123  0.00  0.00    +0.277 C 
ATOM     13  C   UNL     1      -6.717  15.560  26.091  0.00  0.00    +0.110 C 
ATOM     14  C   UNL     1      -7.307  15.045  27.421  0.00  0.00    +0.143 C 
ATOM     15  C   UNL     1      -6.406  13.978  28.044  0.00  0.00    +0.133 C 
BRANCH  15  16
ATOM     16  N   UNL     1      -7.021  13.434  29.265  0.00  0.00    -0.308 N 
ATOM     17  H   UNL     1      -7.844  12.857  29.162  0.00  0.00    +0.149 HD
ATOM     18  C   UNL     1      -6.562  13.651  30.501  0.00  0.00    +0.210 C 
ATOM     19  C   UNL     1      -5.321  14.555  30.626  0.00  0.00    +0.109 C 
ATOM     20  O   UNL     1      -7.089  13.170  31.504  0.00  0.00    -0.276 OA
ENDBRANCH  15  16
BRANCH  12  21
ATOM     21  C   UNL     1      -7.700  13.800  24.571  0.00  0.00    +0.414 C 
ATOM     22  O   UNL     1      -8.349  14.410  23.721  0.00  0.00    -0.240 OA
ATOM     23  O   UNL     1      -8.109  12.710  24.973  0.00  0.00    -0.240 OA
ENDBRANCH  12  21
BRANCH  14  24
ATOM     24  O   UNL     1      -7.452  16.132  28.336  0.00  0.00    -0.390 OA
ATOM     25  H   UNL     1      -8.367  16.190  28.622  0.00  0.00    +0.210 HD
ENDBRANCH  14  24
BRANCH  12  26
ATOM     26  O   UNL     1      -5.593  14.922  24.030  0.00  0.00    -0.343 OA
ATOM     27  C   UNL     1      -4.547  14.037  23.554  0.00  0.00    +0.198 C 
ENDBRANCH  12  26
ENDBRANCH   9  10
BRANCH   9  28
ATOM     28  O   UNL     1      -5.995  10.861  28.449  0.00  0.00    -0.387 OA
ATOM     29  H   UNL     1      -6.837  11.268  28.665  0.00  0.00    +0.210 HD
ENDBRANCH   9  28
ENDBRANCH   6   9
ENDBRANCH   5   6
ENDBRANCH   3   5
BRANCH   1  30
ATOM     30  O   UNL     1      -2.136   8.050  28.892  0.00  0.00    -0.444 OA
BRANCH  30  31
ATOM     31  C   UNL     1      -2.464   7.413  27.654  0.00  0.00    +0.292 C 
BRANCH  31  33
ATOM     32  N   UNL     1      -1.780   9.410  26.366  0.00  0.00    -0.131 NA
ATOM     33  C   UNL     1      -2.689   8.420  26.599  0.00  0.00    +0.121 A 
ATOM     34  C   UNL     1      -3.740   8.559  25.722  0.00  0.00    +0.143 A 
ATOM     35  N   UNL     1      -3.421   9.657  24.955  0.00  0.00    -0.220 N 
ATOM     36  N   UNL     1      -2.235  10.163  25.374  0.00  0.00    -0.060 NA
BRANCH  35  37
ATOM     37  C   UNL     1      -4.118  10.201  23.844  0.00  0.00    +0.067 A 
ATOM     38  C   UNL     1      -5.512  10.359  23.876  0.00  0.00    +0.030 A 
ATOM     39  C   UNL     1      -6.195  10.782  22.732  0.00  0.00    +0.029 A 
ATOM     40  C   UNL     1      -5.484  11.053  21.561  0.00  0.00    +0.094 A 
ATOM     41  C   UNL     1      -4.088  10.988  21.545  0.00  0.00    +0.029 A 
ATOM     42  C   UNL     1      -3.406  10.550  22.684  0.00  0.00    +0.030 A 
BRANCH  40  43
ATOM     43  S   UNL     1      -6.362  11.525  20.084  0.00  0.00    +0.025 S 
ATOM     44  O   UNL     1      -7.574  10.723  20.061  0.00  0.00    -0.164 OA
ATOM     45  O   UNL     1      -6.433  12.973  20.067  0.00  0.00    -0.164 OA
BRANCH  43  46
ATOM     46  C   UNL     1      -5.397  11.053  18.664  0.00  0.00    +0.094 A 
ATOM     47  C   UNL     1      -4.798  12.014  17.850  0.00  0.00    +0.029 A 
ATOM     48  C   UNL     1      -4.099  11.611  16.706  0.00  0.00    +0.024 A 
ATOM     49  C   UNL     1      -3.950  10.253  16.392  0.00  0.00    +0.025 A 
ATOM     50  C   UNL     1      -4.583   9.306  17.203  0.00  0.00    +0.024 A 
ATOM     51  C   UNL     1      -5.285   9.696  18.346  0.00  0.00    +0.029 A 
BRANCH  49  52
ATOM     52  N   UNL     1      -3.401   9.872  15.165  0.00  0.00    -0.358 N 
ATOM     53  H   UNL     1      -3.834   9.058  14.740  0.00  0.00    +0.142 HD
ATOM     54  H   UNL     1      -3.275  10.633  14.506  0.00  0.00    +0.142 HD
ENDBRANCH  49  52
ENDBRANCH  43  46
ENDBRANCH  40  43
ENDBRANCH  35  37
ENDBRANCH  31  33
ENDBRANCH  30  31
ENDBRANCH   1  30
TORSDOF 17
