REMARK VINA RESULT:    -4.985      2.910      5.067
REMARK INTER + INTRA:         -11.606
REMARK INTER:                  -8.962
REMARK INTRA:                  -2.644
REMARK UNBOUND:                -2.541
REMARK  Name = lig_assembled_23.pdb
REMARK  18 active torsions:
REMARK  status: ('A' for Active; 'I' for Inactive)
REMARK    1  A    between atoms: _2  and  _10
REMARK    2  A    between atoms: _3  and  _41
REMARK    3  A    between atoms: _5  and  _21
REMARK    4  A    between atoms: _7  and  _8
REMARK    5  A    between atoms: _7  and  _21
REMARK    6  A    between atoms: _12  and  _41
REMARK    7  A    between atoms: _17  and  _37
REMARK    8  A    between atoms: _19  and  _25
REMARK    9  A    between atoms: _20  and  _24
REMARK   10  A    between atoms: _24  and  _25
REMARK   11  A    between atoms: _27  and  _28
REMARK   12  A    between atoms: _29  and  _30
REMARK   13  A    between atoms: _31  and  _33
REMARK   14  A    between atoms: _33  and  _34
REMARK   15  A    between atoms: _33  and  _35
REMARK   16  A    between atoms: _35  and  _36
REMARK   17  A    between atoms: _35  and  _37
REMARK   18  A    between atoms: _38  and  _40
REMARK                            x       y       z     vdW  Elec       q    Type
REMARK                         _______ _______ _______ _____ _____    ______ ____
ROOT
ATOM      1  C   UNL     1      -7.401   8.314  22.720  0.00  0.00    +0.141 C 
ENDROOT
BRANCH   1   4
ATOM      2  C   UNL     1      -8.322   8.392  20.429  0.00  0.00    +0.401 C 
ATOM      3  O   UNL     1      -8.997   7.369  20.565  0.00  0.00    -0.226 OA
ATOM      4  N   UNL     1      -7.542   8.902  21.383  0.00  0.00    -0.279 N 
ATOM      5  H   UNL     1      -7.019   9.741  21.173  0.00  0.00    +0.152 HD
BRANCH   2   6
ATOM      6  O   UNL     1      -8.359   9.088  19.180  0.00  0.00    -0.444 OA
BRANCH   6   7
ATOM      7  C   UNL     1      -7.866  10.418  19.360  0.00  0.00    +0.292 C 
BRANCH   7   9
ATOM      8  N   UNL     1      -6.623  12.035  17.962  0.00  0.00    -0.131 NA
ATOM      9  C   UNL     1      -6.874  10.741  18.319  0.00  0.00    +0.121 A 
ATOM     10  C   UNL     1      -6.076   9.906  17.570  0.00  0.00    +0.143 A 
ATOM     11  N   UNL     1      -5.339  10.745  16.767  0.00  0.00    -0.220 N 
ATOM     12  N   UNL     1      -5.694  12.029  17.017  0.00  0.00    -0.060 NA
BRANCH  11  13
ATOM     13  C   UNL     1      -4.357  10.415  15.797  0.00  0.00    +0.069 A 
ATOM     14  C   UNL     1      -4.099  11.308  14.747  0.00  0.00    +0.056 A 
ATOM     15  C   UNL     1      -3.156  10.970  13.769  0.00  0.00    +0.107 A 
ATOM     16  C   UNL     1      -2.448   9.769  13.839  0.00  0.00    +0.028 A 
ATOM     17  C   UNL     1      -2.695   8.890  14.893  0.00  0.00    +0.004 A 
ATOM     18  C   UNL     1      -3.649   9.207  15.867  0.00  0.00    +0.028 A 
BRANCH  15  19
ATOM     19  S   UNL     1      -2.885  12.080  12.421  0.00  0.00    +0.056 S 
ATOM     20  O   UNL     1      -2.235  11.362  11.350  0.00  0.00    -0.153 OA
ATOM     21  O   UNL     1      -4.071  12.880  12.216  0.00  0.00    -0.153 OA
BRANCH  19  22
ATOM     22  N   UNL     1      -1.743  13.132  13.058  0.00  0.00    -0.204 NA
ATOM     23  H   UNL     1      -1.738  13.068  14.076  0.00  0.00    +0.144 HD
ATOM     24  H   UNL     1      -1.899  14.076  12.702  0.00  0.00    +0.144 HD
ENDBRANCH  19  22
ENDBRANCH  15  19
ENDBRANCH  11  13
ENDBRANCH   7   9
ENDBRANCH   6   7
ENDBRANCH   2   6
ENDBRANCH   1   4
BRANCH   1  25
ATOM     25  C   UNL     1      -6.441   9.114  23.595  0.00  0.00    +0.163 C 
BRANCH  25  26
ATOM     26  O   UNL     1      -6.966   9.224  24.928  0.00  0.00    -0.388 OA
ATOM     27  H   UNL     1      -7.924   9.155  24.902  0.00  0.00    +0.210 HD
ENDBRANCH  25  26
BRANCH  25  28
ATOM     28  C   UNL     1      -5.062   8.433  23.601  0.00  0.00    +0.175 C 
BRANCH  28  29
ATOM     29  C   UNL     1      -3.984   9.315  24.248  0.00  0.00    +0.176 C 
ATOM     30  O   UNL     1      -4.279   9.412  25.669  0.00  0.00    -0.332 OA
ATOM     31  C   UNL     1      -3.290  10.135  26.473  0.00  0.00    +0.277 C 
ATOM     32  C   UNL     1      -3.048  11.550  25.891  0.00  0.00    +0.110 C 
ATOM     33  C   UNL     1      -2.762  11.500  24.376  0.00  0.00    +0.143 C 
ATOM     34  C   UNL     1      -3.852  10.722  23.637  0.00  0.00    +0.133 C 
BRANCH  34  35
ATOM     35  N   UNL     1      -3.523  10.608  22.207  0.00  0.00    -0.308 N 
ATOM     36  H   UNL     1      -2.734  10.033  21.949  0.00  0.00    +0.149 HD
ATOM     37  C   UNL     1      -4.200  11.215  21.228  0.00  0.00    +0.210 C 
ATOM     38  C   UNL     1      -5.382  12.105  21.656  0.00  0.00    +0.109 C 
ATOM     39  O   UNL     1      -3.912  11.089  20.038  0.00  0.00    -0.276 OA
ENDBRANCH  34  35
BRANCH  31  40
ATOM     40  C   UNL     1      -1.955   9.363  26.523  0.00  0.00    +0.414 C 
ATOM     41  O   UNL     1      -1.950   8.133  26.538  0.00  0.00    -0.240 OA
ATOM     42  O   UNL     1      -0.883   9.970  26.546  0.00  0.00    -0.240 OA
ENDBRANCH  31  40
BRANCH  33  43
ATOM     43  O   UNL     1      -2.697  12.828  23.855  0.00  0.00    -0.390 OA
ATOM     44  H   UNL     1      -1.778  13.096  23.772  0.00  0.00    +0.210 HD
ENDBRANCH  33  43
BRANCH  31  45
ATOM     45  O   UNL     1      -3.821  10.278  27.816  0.00  0.00    -0.343 OA
ATOM     46  C   UNL     1      -3.675  11.599  28.395  0.00  0.00    +0.198 C 
ENDBRANCH  31  45
ENDBRANCH  28  29
BRANCH  28  47
ATOM     47  O   UNL     1      -4.676   8.081  22.258  0.00  0.00    -0.387 OA
ATOM     48  H   UNL     1      -4.628   8.875  21.720  0.00  0.00    +0.210 HD
ENDBRANCH  28  47
ENDBRANCH  25  28
ENDBRANCH   1  25
TORSDOF 16
