REMARK VINA RESULT:    -5.319      2.059      3.538
REMARK INTER + INTRA:         -13.140
REMARK INTER:                 -10.881
REMARK INTRA:                  -2.259
REMARK UNBOUND:                -3.157
REMARK  Name = lig_assembled_64.pdb
REMARK  19 active torsions:
REMARK  status: ('A' for Active; 'I' for Inactive)
REMARK    1  A    between atoms: _2  and  _10
REMARK    2  A    between atoms: _5  and  _27
REMARK    3  A    between atoms: _7  and  _8
REMARK    4  A    between atoms: _7  and  _27
REMARK    5  A    between atoms: _12  and  _13
REMARK    6  A    between atoms: _13  and  _21
REMARK    7  A    between atoms: _14  and  _15
REMARK    8  A    between atoms: _23  and  _43
REMARK    9  A    between atoms: _25  and  _31
REMARK   10  A    between atoms: _26  and  _30
REMARK   11  A    between atoms: _30  and  _31
REMARK   12  A    between atoms: _33  and  _34
REMARK   13  A    between atoms: _35  and  _36
REMARK   14  A    between atoms: _37  and  _39
REMARK   15  A    between atoms: _39  and  _40
REMARK   16  A    between atoms: _39  and  _41
REMARK   17  A    between atoms: _41  and  _42
REMARK   18  A    between atoms: _41  and  _43
REMARK   19  A    between atoms: _44  and  _46
REMARK                            x       y       z     vdW  Elec       q    Type
REMARK                         _______ _______ _______ _____ _____    ______ ____
ROOT
ATOM      1  C   UNL     1      -4.216   8.601  15.206  0.00  0.00    +0.401 C 
ATOM      2  O   UNL     1      -4.039   7.425  14.880  0.00  0.00    -0.226 OA
ATOM      3  N   UNL     1      -4.645   9.549  14.371  0.00  0.00    -0.279 N 
ATOM      4  H   UNL     1      -4.769  10.484  14.734  0.00  0.00    +0.152 HD
ENDROOT
BRANCH   3   5
ATOM      5  C   UNL     1      -4.947   9.311  12.955  0.00  0.00    +0.141 C 
BRANCH   5   6
ATOM      6  C   UNL     1      -4.135  10.222  12.039  0.00  0.00    +0.163 C 
BRANCH   6   7
ATOM      7  O   UNL     1      -5.006  11.151  11.372  0.00  0.00    -0.388 OA
ATOM      8  H   UNL     1      -4.823  11.142  10.430  0.00  0.00    +0.210 HD
ENDBRANCH   6   7
BRANCH   6   9
ATOM      9  C   UNL     1      -3.070  10.963  12.865  0.00  0.00    +0.175 C 
BRANCH   9  10
ATOM     10  C   UNL     1      -2.751  12.349  12.286  0.00  0.00    +0.176 C 
ATOM     11  O   UNL     1      -1.349  12.360  11.899  0.00  0.00    -0.332 OA
ATOM     12  C   UNL     1      -0.887  13.577  11.224  0.00  0.00    +0.277 C 
ATOM     13  C   UNL     1      -1.202  14.825  12.084  0.00  0.00    +0.110 C 
ATOM     14  C   UNL     1      -2.674  14.841  12.547  0.00  0.00    +0.143 C 
ATOM     15  C   UNL     1      -3.048  13.527  13.233  0.00  0.00    +0.133 C 
BRANCH  15  16
ATOM     16  N   UNL     1      -4.475  13.521  13.592  0.00  0.00    -0.308 N 
ATOM     17  H   UNL     1      -5.140  13.809  12.887  0.00  0.00    +0.149 HD
ATOM     18  C   UNL     1      -4.949  13.160  14.787  0.00  0.00    +0.210 C 
ATOM     19  C   UNL     1      -3.909  12.751  15.847  0.00  0.00    +0.109 C 
ATOM     20  O   UNL     1      -6.151  13.150  15.055  0.00  0.00    -0.276 OA
ENDBRANCH  15  16
BRANCH  12  21
ATOM     21  C   UNL     1      -1.555  13.722   9.841  0.00  0.00    +0.414 C 
ATOM     22  O   UNL     1      -1.687  12.742   9.109  0.00  0.00    -0.240 OA
ATOM     23  O   UNL     1      -1.963  14.819   9.457  0.00  0.00    -0.240 OA
ENDBRANCH  12  21
BRANCH  12  24
ATOM     24  O   UNL     1       0.552  13.483  11.064  0.00  0.00    -0.343 OA
ATOM     25  C   UNL     1       1.272  14.726  11.257  0.00  0.00    +0.198 C 
ENDBRANCH  12  24
BRANCH  14  26
ATOM     26  O   UNL     1      -2.881  15.922  13.457  0.00  0.00    -0.390 OA
ATOM     27  H   UNL     1      -2.223  15.884  14.156  0.00  0.00    +0.210 HD
ENDBRANCH  14  26
ENDBRANCH   9  10
BRANCH   9  28
ATOM     28  O   UNL     1      -1.868  10.171  12.950  0.00  0.00    -0.387 OA
ATOM     29  H   UNL     1      -1.461  10.112  12.082  0.00  0.00    +0.210 HD
ENDBRANCH   9  28
ENDBRANCH   6   9
ENDBRANCH   5   6
ENDBRANCH   3   5
BRANCH   1  30
ATOM     30  O   UNL     1      -3.957   8.995  16.556  0.00  0.00    -0.444 OA
BRANCH  30  31
ATOM     31  C   UNL     1      -5.050   9.777  17.044  0.00  0.00    +0.292 C 
BRANCH  31  33
ATOM     32  N   UNL     1      -4.958   9.088  19.426  0.00  0.00    -0.131 NA
ATOM     33  C   UNL     1      -4.877  10.069  18.479  0.00  0.00    +0.121 A 
ATOM     34  C   UNL     1      -4.623  11.270  19.100  0.00  0.00    +0.143 A 
ATOM     35  N   UNL     1      -4.564  10.972  20.441  0.00  0.00    -0.220 N 
ATOM     36  N   UNL     1      -4.765   9.644  20.616  0.00  0.00    -0.060 NA
BRANCH  35  37
ATOM     37  C   UNL     1      -4.332  11.850  21.528  0.00  0.00    +0.071 A 
ATOM     38  C   UNL     1      -4.336  13.227  21.332  0.00  0.00    +0.063 A 
ATOM     39  CA  UNL     1      -4.102  14.027  22.432  0.00  0.00    +0.150 A 
ATOM     40  N   UNL     1      -3.861  13.568  23.694  0.00  0.00    -0.240 NA
ATOM     41  C   UNL     1      -3.845  12.220  23.874  0.00  0.00    +0.074 A 
ATOM     42  C   UNL     1      -4.089  11.341  22.814  0.00  0.00    +0.056 A 
BRANCH  41  43
ATOM     43  C   UNL     1      -3.528  11.761  25.248  0.00  0.00    +0.000 A 
ATOM     44  C   UNL     1      -4.075  12.381  26.388  0.00  0.00    +0.010 A 
ATOM     45  C   UNL     1      -3.798  11.915  27.679  0.00  0.00    +0.001 A 
ATOM     46  C   UNL     1      -2.967  10.815  27.863  0.00  0.00    +0.000 A 
ATOM     47  C   UNL     1      -2.406  10.186  26.756  0.00  0.00    +0.001 A 
ATOM     48  C   UNL     1      -2.684  10.655  25.467  0.00  0.00    +0.010 A 
ENDBRANCH  41  43
BRANCH  39  49
ATOM     49  C   UNL     1      -4.097  15.510  22.269  0.00  0.00    +0.355 C 
ATOM     50  OXT UNL     1      -3.120  16.166  21.955  0.00  0.00    -0.243 OA
BRANCH  49  51
ATOM     51  O   UNL     1      -5.323  16.023  22.518  0.00  0.00    -0.476 OA
ATOM     52  H   UNL     1      -5.391  16.240  23.477  0.00  0.00    +0.295 HD
ENDBRANCH  49  51
ENDBRANCH  39  49
ENDBRANCH  35  37
ENDBRANCH  31  33
ENDBRANCH  30  31
ENDBRANCH   1  30
TORSDOF 17
