REMARK VINA RESULT:    -4.364      2.592      5.325
REMARK INTER + INTRA:         -10.490
REMARK INTER:                  -7.624
REMARK INTRA:                  -2.866
REMARK UNBOUND:                -2.299
REMARK  Name = lig_assembled_32.pdb
REMARK  19 active torsions:
REMARK  status: ('A' for Active; 'I' for Inactive)
REMARK    1  A    between atoms: _2  and  _9
REMARK    2  A    between atoms: _4  and  _17
REMARK    3  A    between atoms: _5  and  _10
REMARK    4  A    between atoms: _5  and  _11
REMARK    5  A    between atoms: _6  and  _7
REMARK    6  A    between atoms: _6  and  _17
REMARK    7  A    between atoms: _9  and  _10
REMARK    8  A    between atoms: _13  and  _33
REMARK    9  A    between atoms: _15  and  _21
REMARK   10  A    between atoms: _16  and  _20
REMARK   11  A    between atoms: _20  and  _21
REMARK   12  A    between atoms: _23  and  _24
REMARK   13  A    between atoms: _25  and  _26
REMARK   14  A    between atoms: _27  and  _29
REMARK   15  A    between atoms: _29  and  _30
REMARK   16  A    between atoms: _29  and  _31
REMARK   17  A    between atoms: _31  and  _32
REMARK   18  A    between atoms: _31  and  _33
REMARK   19  A    between atoms: _34  and  _36
REMARK                            x       y       z     vdW  Elec       q    Type
REMARK                         _______ _______ _______ _____ _____    ______ ____
ROOT
ATOM      1  C   UNL     1      -5.694   8.053  24.919  0.00  0.00    +0.163 C 
ENDROOT
BRANCH   1   2
ATOM      2  O   UNL     1      -5.911   8.627  26.218  0.00  0.00    -0.388 OA
ATOM      3  H   UNL     1      -5.870   7.936  26.884  0.00  0.00    +0.210 HD
ENDBRANCH   1   2
BRANCH   1   4
ATOM      4  C   UNL     1      -5.950   9.090  23.811  0.00  0.00    +0.175 C 
BRANCH   4   5
ATOM      5  C   UNL     1      -4.946  10.251  23.862  0.00  0.00    +0.176 C 
ATOM      6  O   UNL     1      -5.295  11.094  24.994  0.00  0.00    -0.332 OA
ATOM      7  C   UNL     1      -4.377  12.204  25.265  0.00  0.00    +0.277 C 
ATOM      8  C   UNL     1      -4.193  13.076  23.999  0.00  0.00    +0.110 C 
ATOM      9  C   UNL     1      -3.852  12.220  22.762  0.00  0.00    +0.143 C 
ATOM     10  C   UNL     1      -4.869  11.094  22.576  0.00  0.00    +0.133 C 
BRANCH  10  11
ATOM     11  N   UNL     1      -4.485  10.233  21.446  0.00  0.00    -0.308 N 
ATOM     12  H   UNL     1      -3.611   9.731  21.512  0.00  0.00    +0.149 HD
ATOM     13  C   UNL     1      -5.215  10.073  20.339  0.00  0.00    +0.210 C 
ATOM     14  C   UNL     1      -6.529  10.874  20.258  0.00  0.00    +0.109 C 
ATOM     15  O   UNL     1      -4.875   9.334  19.415  0.00  0.00    -0.276 OA
ENDBRANCH  10  11
BRANCH   7  16
ATOM     16  C   UNL     1      -3.004  11.676  25.731  0.00  0.00    +0.414 C 
ATOM     17  O   UNL     1      -1.973  12.274  25.425  0.00  0.00    -0.240 OA
ATOM     18  O   UNL     1      -2.927  10.653  26.412  0.00  0.00    -0.240 OA
ENDBRANCH   7  16
BRANCH   7  19
ATOM     19  O   UNL     1      -4.962  13.027  26.307  0.00  0.00    -0.343 OA
ATOM     20  C   UNL     1      -5.698  12.298  27.322  0.00  0.00    +0.198 C 
ENDBRANCH   7  19
BRANCH   9  21
ATOM     21  O   UNL     1      -3.841  13.043  21.595  0.00  0.00    -0.390 OA
ATOM     22  H   UNL     1      -2.937  13.165  21.297  0.00  0.00    +0.210 HD
ENDBRANCH   9  21
ENDBRANCH   4   5
BRANCH   4  23
ATOM     23  O   UNL     1      -7.297   9.593  23.903  0.00  0.00    -0.387 OA
ATOM     24  H   UNL     1      -7.787   9.081  24.551  0.00  0.00    +0.210 HD
ENDBRANCH   4  23
ENDBRANCH   1   4
BRANCH   1  25
ATOM     25  C   UNL     1      -4.264   7.534  24.810  0.00  0.00    +0.141 C 
BRANCH  25  28
ATOM     26  C   UNL     1      -2.344   7.113  26.307  0.00  0.00    +0.401 C 
ATOM     27  O   UNL     1      -1.734   6.425  25.486  0.00  0.00    -0.226 OA
ATOM     28  N   UNL     1      -3.536   7.666  26.078  0.00  0.00    -0.279 N 
ATOM     29  H   UNL     1      -3.961   8.207  26.818  0.00  0.00    +0.152 HD
BRANCH  26  30
ATOM     30  O   UNL     1      -1.760   7.343  27.592  0.00  0.00    -0.444 OA
BRANCH  30  31
ATOM     31  C   UNL     1      -2.623   6.827  28.609  0.00  0.00    +0.292 C 
BRANCH  31  33
ATOM     32  N   UNL     1      -4.109   8.759  29.041  0.00  0.00    -0.131 NA
ATOM     33  C   UNL     1      -3.113   7.920  29.469  0.00  0.00    +0.120 A 
ATOM     34  C   UNL     1      -2.721   8.296  30.735  0.00  0.00    +0.137 A 
ATOM     35  N   UNL     1      -3.507   9.373  31.013  0.00  0.00    -0.251 N 
ATOM     36  N   UNL     1      -4.340   9.648  29.996  0.00  0.00    -0.065 NA
BRANCH  35  37
ATOM     37  C   UNL     1      -3.528  10.180  32.211  0.00  0.00    +0.156 C 
BRANCH  37  38
ATOM     38  C   UNL     1      -4.063  11.581  31.946  0.00  0.00    +0.143 C 
BRANCH  38  39
ATOM     39  C   UNL     1      -2.932  12.517  31.633  0.00  0.00    +0.306 C 
ATOM     40  O   UNL     1      -3.006  13.472  30.876  0.00  0.00    -0.251 OA
BRANCH  39  41
ATOM     41  O   UNL     1      -1.789  12.188  32.275  0.00  0.00    -0.481 OA
ATOM     42  H   UNL     1      -1.842  11.360  32.790  0.00  0.00    +0.295 HD
ENDBRANCH  39  41
ENDBRANCH  38  39
ENDBRANCH  37  38
ENDBRANCH  35  37
ENDBRANCH  31  33
ENDBRANCH  30  31
ENDBRANCH  26  30
ENDBRANCH  25  28
ENDBRANCH   1  25
TORSDOF 17
