REMARK VINA RESULT:    -5.428      4.961      9.737
REMARK INTER + INTRA:         -12.760
REMARK INTER:                 -10.565
REMARK INTRA:                  -2.195
REMARK UNBOUND:                -2.890
REMARK  Name = lig_assembled_73.pdb
REMARK  18 active torsions:
REMARK  status: ('A' for Active; 'I' for Inactive)
REMARK    1  A    between atoms: _2  and  _10
REMARK    2  A    between atoms: _3  and  _14
REMARK    3  A    between atoms: _5  and  _22
REMARK    4  A    between atoms: _7  and  _8
REMARK    5  A    between atoms: _7  and  _22
REMARK    6  A    between atoms: _13  and  _16
REMARK    7  A    between atoms: _18  and  _38
REMARK    8  A    between atoms: _20  and  _26
REMARK    9  A    between atoms: _21  and  _25
REMARK   10  A    between atoms: _25  and  _26
REMARK   11  A    between atoms: _28  and  _29
REMARK   12  A    between atoms: _30  and  _31
REMARK   13  A    between atoms: _32  and  _34
REMARK   14  A    between atoms: _34  and  _35
REMARK   15  A    between atoms: _34  and  _36
REMARK   16  A    between atoms: _36  and  _37
REMARK   17  A    between atoms: _36  and  _38
REMARK   18  A    between atoms: _39  and  _41
REMARK                            x       y       z     vdW  Elec       q    Type
REMARK                         _______ _______ _______ _____ _____    ______ ____
ROOT
ATOM      1  C   UNL     1      -3.261  11.811  25.123  0.00  0.00    +0.163 C 
ENDROOT
BRANCH   1   2
ATOM      2  O   UNL     1      -2.048  11.047  25.031  0.00  0.00    -0.388 OA
ATOM      3  H   UNL     1      -2.172  10.321  24.415  0.00  0.00    +0.210 HD
ENDBRANCH   1   2
BRANCH   1   4
ATOM      4  C   UNL     1      -3.603  12.127  26.589  0.00  0.00    +0.175 C 
BRANCH   4   5
ATOM      5  C   UNL     1      -3.366  10.921  27.510  0.00  0.00    +0.176 C 
ATOM      6  O   UNL     1      -4.003   9.763  26.905  0.00  0.00    -0.332 OA
ATOM      7  C   UNL     1      -3.790   8.488  27.596  0.00  0.00    +0.277 C 
ATOM      8  C   UNL     1      -4.213   8.601  29.081  0.00  0.00    +0.110 C 
ATOM      9  C   UNL     1      -3.585   9.837  29.760  0.00  0.00    +0.143 C 
ATOM     10  C   UNL     1      -3.865  11.106  28.955  0.00  0.00    +0.133 C 
BRANCH  10  11
ATOM     11  N   UNL     1      -3.189  12.262  29.565  0.00  0.00    -0.308 N 
ATOM     12  H   UNL     1      -2.179  12.259  29.589  0.00  0.00    +0.149 HD
ATOM     13  C   UNL     1      -3.823  13.315  30.089  0.00  0.00    +0.210 C 
ATOM     14  C   UNL     1      -5.362  13.277  30.061  0.00  0.00    +0.109 C 
ATOM     15  O   UNL     1      -3.229  14.276  30.580  0.00  0.00    -0.276 OA
ENDBRANCH  10  11
BRANCH   7  16
ATOM     16  C   UNL     1      -2.310   8.061  27.512  0.00  0.00    +0.414 C 
ATOM     17  O   UNL     1      -1.802   7.404  28.420  0.00  0.00    -0.240 OA
ATOM     18  O   UNL     1      -1.625   8.373  26.538  0.00  0.00    -0.240 OA
ENDBRANCH   7  16
BRANCH   9  19
ATOM     19  O   UNL     1      -4.118   9.986  31.076  0.00  0.00    -0.390 OA
ATOM     20  H   UNL     1      -5.065  10.140  31.023  0.00  0.00    +0.210 HD
ENDBRANCH   9  19
BRANCH   7  21
ATOM     21  O   UNL     1      -4.624   7.487  26.958  0.00  0.00    -0.343 OA
ATOM     22  C   UNL     1      -5.521   7.996  25.939  0.00  0.00    +0.198 C 
ENDBRANCH   7  21
ENDBRANCH   4   5
BRANCH   4  23
ATOM     23  O   UNL     1      -4.970  12.572  26.696  0.00  0.00    -0.387 OA
ATOM     24  H   UNL     1      -5.304  12.794  25.823  0.00  0.00    +0.210 HD
ENDBRANCH   4  23
ENDBRANCH   1   4
BRANCH   1  25
ATOM     25  C   UNL     1      -3.118  13.113  24.341  0.00  0.00    +0.141 C 
BRANCH  25  28
ATOM     26  C   UNL     1      -4.214  12.922  22.135  0.00  0.00    +0.401 C 
ATOM     27  O   UNL     1      -3.256  12.356  21.603  0.00  0.00    -0.226 OA
ATOM     28  N   UNL     1      -4.233  13.317  23.409  0.00  0.00    -0.279 N 
ATOM     29  H   UNL     1      -5.062  13.783  23.751  0.00  0.00    +0.152 HD
BRANCH  26  30
ATOM     30  O   UNL     1      -5.384  13.186  21.357  0.00  0.00    -0.444 OA
BRANCH  30  31
ATOM     31  C   UNL     1      -5.920  11.954  20.867  0.00  0.00    +0.292 C 
BRANCH  31  33
ATOM     32  N   UNL     1      -6.662  12.326  18.535  0.00  0.00    -0.131 NA
ATOM     33  C   UNL     1      -5.725  11.854  19.408  0.00  0.00    +0.121 A 
ATOM     34  C   UNL     1      -4.674  11.325  18.695  0.00  0.00    +0.143 A 
ATOM     35  N   UNL     1      -5.014  11.505  17.375  0.00  0.00    -0.220 N 
ATOM     36  N   UNL     1      -6.223  12.111  17.303  0.00  0.00    -0.060 NA
BRANCH  35  37
ATOM     37  C   UNL     1      -4.286  11.143  16.211  0.00  0.00    +0.074 A 
ATOM     38  C   UNL     1      -3.877   9.810  16.031  0.00  0.00    +0.032 A 
ATOM     39  C   UNL     1      -3.150   9.431  14.894  0.00  0.00    +0.054 A 
ATOM     40  C   UNL     1      -2.821  10.380  13.929  0.00  0.00    +0.195 A 
ATOM     41  C   UNL     1      -3.230  11.700  14.112  0.00  0.00    +0.316 A 
ATOM     42  C   UNL     1      -3.965  12.098  15.239  0.00  0.00    +0.116 A 
BRANCH  41  43
ATOM     43  N   UNL     1      -2.896  12.713  13.131  0.00  0.00    +0.083 N 
ATOM     44  O   UNL     1      -3.826  13.376  12.653  0.00  0.00    +0.042 OA
ATOM     45  O   UNL     1      -1.710  12.774  12.778  0.00  0.00    -0.576 OA
ENDBRANCH  41  43
BRANCH  40  46
ATOM     46  O   UNL     1      -2.133  10.007  12.814  0.00  0.00    -0.501 OA
ATOM     47  H   UNL     1      -2.309   9.072  12.610  0.00  0.00    +0.292 HD
ENDBRANCH  40  46
ENDBRANCH  35  37
ENDBRANCH  31  33
ENDBRANCH  30  31
ENDBRANCH  26  30
ENDBRANCH  25  28
ENDBRANCH   1  25
TORSDOF 16
