REMARK VINA RESULT:    -4.779      2.695      5.057
REMARK INTER + INTRA:         -11.581
REMARK INTER:                  -8.776
REMARK INTRA:                  -2.805
REMARK UNBOUND:                -2.890
REMARK  Name = lig_assembled_73.pdb
REMARK  18 active torsions:
REMARK  status: ('A' for Active; 'I' for Inactive)
REMARK    1  A    between atoms: _2  and  _10
REMARK    2  A    between atoms: _3  and  _14
REMARK    3  A    between atoms: _5  and  _22
REMARK    4  A    between atoms: _7  and  _8
REMARK    5  A    between atoms: _7  and  _22
REMARK    6  A    between atoms: _13  and  _16
REMARK    7  A    between atoms: _18  and  _38
REMARK    8  A    between atoms: _20  and  _26
REMARK    9  A    between atoms: _21  and  _25
REMARK   10  A    between atoms: _25  and  _26
REMARK   11  A    between atoms: _28  and  _29
REMARK   12  A    between atoms: _30  and  _31
REMARK   13  A    between atoms: _32  and  _34
REMARK   14  A    between atoms: _34  and  _35
REMARK   15  A    between atoms: _34  and  _36
REMARK   16  A    between atoms: _36  and  _37
REMARK   17  A    between atoms: _36  and  _38
REMARK   18  A    between atoms: _39  and  _41
REMARK                            x       y       z     vdW  Elec       q    Type
REMARK                         _______ _______ _______ _____ _____    ______ ____
ROOT
ATOM      1  C   UNL     1      -5.983   8.707  21.832  0.00  0.00    +0.163 C 
ENDROOT
BRANCH   1   2
ATOM      2  O   UNL     1      -6.715   8.532  20.608  0.00  0.00    -0.388 OA
ATOM      3  H   UNL     1      -7.139   7.671  20.608  0.00  0.00    +0.210 HD
ENDBRANCH   1   2
BRANCH   1   4
ATOM      4  C   UNL     1      -6.469   9.953  22.591  0.00  0.00    +0.175 C 
BRANCH   4   5
ATOM      5  C   UNL     1      -5.311  10.885  22.974  0.00  0.00    +0.176 C 
ATOM      6  O   UNL     1      -5.416  11.169  24.397  0.00  0.00    -0.332 OA
ATOM      7  C   UNL     1      -4.326  11.966  24.967  0.00  0.00    +0.277 C 
ATOM      8  C   UNL     1      -4.154  13.289  24.181  0.00  0.00    +0.110 C 
ATOM      9  C   UNL     1      -4.069  13.040  22.660  0.00  0.00    +0.143 C 
ATOM     10  C   UNL     1      -5.250  12.200  22.174  0.00  0.00    +0.133 C 
BRANCH  10  11
ATOM     11  N   UNL     1      -5.112  11.897  20.741  0.00  0.00    -0.308 N 
ATOM     12  H   UNL     1      -4.259  11.453  20.433  0.00  0.00    +0.149 HD
ATOM     13  C   UNL     1      -6.042  12.170  19.821  0.00  0.00    +0.210 C 
ATOM     14  C   UNL     1      -7.320  12.870  20.319  0.00  0.00    +0.109 C 
ATOM     15  O   UNL     1      -5.905  11.892  18.629  0.00  0.00    -0.276 OA
ENDBRANCH  10  11
BRANCH   7  16
ATOM     16  C   UNL     1      -3.001  11.176  24.943  0.00  0.00    +0.414 C 
ATOM     17  O   UNL     1      -2.012  11.605  25.536  0.00  0.00    -0.240 OA
ATOM     18  O   UNL     1      -2.920  10.110  24.330  0.00  0.00    -0.240 OA
ENDBRANCH   7  16
BRANCH   9  19
ATOM     19  O   UNL     1      -4.063  14.289  21.967  0.00  0.00    -0.390 OA
ATOM     20  H   UNL     1      -4.412  14.166  21.082  0.00  0.00    +0.210 HD
ENDBRANCH   9  19
BRANCH   7  21
ATOM     21  O   UNL     1      -4.676  12.290  26.337  0.00  0.00    -0.343 OA
ATOM     22  C   UNL     1      -5.788  13.210  26.483  0.00  0.00    +0.198 C 
ENDBRANCH   7  21
ENDBRANCH   4   5
BRANCH   4  23
ATOM     23  O   UNL     1      -7.203   9.562  23.769  0.00  0.00    -0.387 OA
ATOM     24  H   UNL     1      -6.607   9.139  24.392  0.00  0.00    +0.210 HD
ENDBRANCH   4  23
ENDBRANCH   1   4
BRANCH   1  25
ATOM     25  C   UNL     1      -6.145   7.475  22.717  0.00  0.00    +0.141 C 
BRANCH  25  28
ATOM     26  C   UNL     1      -3.868   6.834  23.430  0.00  0.00    +0.401 C 
ATOM     27  O   UNL     1      -3.551   6.376  22.329  0.00  0.00    -0.226 OA
ATOM     28  N   UNL     1      -5.062   7.362  23.702  0.00  0.00    -0.279 N 
ATOM     29  H   UNL     1      -5.231   7.703  24.638  0.00  0.00    +0.152 HD
BRANCH  26  30
ATOM     30  O   UNL     1      -2.915   6.803  24.495  0.00  0.00    -0.444 OA
BRANCH  30  31
ATOM     31  C   UNL     1      -3.593   6.603  25.738  0.00  0.00    +0.292 C 
BRANCH  31  33
ATOM     32  N   UNL     1      -1.846   8.046  26.733  0.00  0.00    -0.131 NA
ATOM     33  C   UNL     1      -3.129   7.581  26.740  0.00  0.00    +0.121 A 
ATOM     34  C   UNL     1      -3.814   8.168  27.777  0.00  0.00    +0.143 A 
ATOM     35  N   UNL     1      -2.900   9.002  28.380  0.00  0.00    -0.220 N 
ATOM     36  N   UNL     1      -1.715   8.908  27.731  0.00  0.00    -0.060 NA
BRANCH  35  37
ATOM     37  C   UNL     1      -3.075   9.851  29.503  0.00  0.00    +0.074 A 
ATOM     38  C   UNL     1      -2.712   9.397  30.784  0.00  0.00    +0.032 A 
ATOM     39  C   UNL     1      -2.884  10.215  31.909  0.00  0.00    +0.054 A 
ATOM     40  C   UNL     1      -3.423  11.492  31.767  0.00  0.00    +0.195 A 
ATOM     41  C   UNL     1      -3.779  11.937  30.495  0.00  0.00    +0.316 A 
ATOM     42  C   UNL     1      -3.608  11.137  29.356  0.00  0.00    +0.116 A 
BRANCH  41  43
ATOM     43  N   UNL     1      -4.351  13.256  30.314  0.00  0.00    +0.083 N 
ATOM     44  O   UNL     1      -5.549  13.324  30.010  0.00  0.00    +0.042 OA
ATOM     45  O   UNL     1      -3.570  14.215  30.389  0.00  0.00    -0.576 OA
ENDBRANCH  41  43
BRANCH  40  46
ATOM     46  O   UNL     1      -3.570  12.294  32.858  0.00  0.00    -0.501 OA
ATOM     47  H   UNL     1      -4.473  12.214  33.211  0.00  0.00    +0.292 HD
ENDBRANCH  40  46
ENDBRANCH  35  37
ENDBRANCH  31  33
ENDBRANCH  30  31
ENDBRANCH  26  30
ENDBRANCH  25  28
ENDBRANCH   1  25
TORSDOF 16
