REMARK VINA RESULT:    -4.519      3.626      9.378
REMARK INTER + INTRA:         -12.931
REMARK INTER:                  -7.763
REMARK INTRA:                  -5.168
REMARK UNBOUND:                -3.788
REMARK  Name = lig_assembled_81.pdb
REMARK  22 active torsions:
REMARK  status: ('A' for Active; 'I' for Inactive)
REMARK    1  A    between atoms: _2  and  _12
REMARK    2  A    between atoms: _7  and  _30
REMARK    3  A    between atoms: _8  and  _24
REMARK    4  A    between atoms: _9  and  _10
REMARK    5  A    between atoms: _9  and  _30
REMARK    6  A    between atoms: _14  and  _15
REMARK    7  A    between atoms: _21  and  _22
REMARK    8  A    between atoms: _22  and  _23
REMARK    9  A    between atoms: _23  and  _25
REMARK   10  A    between atoms: _24  and  _25
REMARK   11  A    between atoms: _26  and  _46
REMARK   12  A    between atoms: _28  and  _34
REMARK   13  A    between atoms: _29  and  _33
REMARK   14  A    between atoms: _33  and  _34
REMARK   15  A    between atoms: _36  and  _37
REMARK   16  A    between atoms: _38  and  _39
REMARK   17  A    between atoms: _40  and  _42
REMARK   18  A    between atoms: _42  and  _43
REMARK   19  A    between atoms: _42  and  _44
REMARK   20  A    between atoms: _44  and  _45
REMARK   21  A    between atoms: _44  and  _46
REMARK   22  A    between atoms: _47  and  _49
REMARK                            x       y       z     vdW  Elec       q    Type
REMARK                         _______ _______ _______ _____ _____    ______ ____
ROOT
ATOM      1  C   UNL     1      -4.582  15.700  31.514  0.00  0.00    +0.401 C 
ATOM      2  O   UNL     1      -5.102  15.995  32.593  0.00  0.00    -0.226 OA
ATOM      3  N   UNL     1      -3.545  14.872  31.387  0.00  0.00    -0.279 N 
ATOM      4  H   UNL     1      -3.195  14.685  30.458  0.00  0.00    +0.152 HD
ENDROOT
BRANCH   1   5
ATOM      5  O   UNL     1      -5.111  16.266  30.311  0.00  0.00    -0.444 OA
BRANCH   5   6
ATOM      6  C   UNL     1      -6.501  15.948  30.204  0.00  0.00    +0.289 C 
BRANCH   6   8
ATOM      7  N   UNL     1      -7.887  15.071  28.381  0.00  0.00    -0.130 NA
ATOM      8  C   UNL     1      -6.726  15.003  29.091  0.00  0.00    +0.100 C 
ATOM      9  C   UNL     1      -5.965  13.962  28.595  0.00  0.00    +0.124 C 
ATOM     10  N   UNL     1      -6.660  13.519  27.478  0.00  0.00    -0.187 N 
ATOM     11  N   UNL     1      -7.885  14.081  27.505  0.00  0.00    -0.010 NA
BRANCH  10  12
ATOM     12  C   UNL     1      -6.287  12.484  26.556  0.00  0.00    +0.150 A 
ATOM     13  C   UNL     1      -5.756  12.686  25.258  0.00  0.00    +0.022 A 
ATOM     14  C   UNL     1      -5.555  11.478  24.540  0.00  0.00    +0.081 A 
ATOM     15  N   UNL     1      -5.922  10.272  25.053  0.00  0.00    -0.214 NA
ATOM     16  C   UNL     1      -6.436  10.213  26.270  0.00  0.00    +0.215 A 
ATOM     17  N   UNL     1      -6.882   8.998  26.732  0.00  0.00    -0.327 N 
ATOM     18  H   UNL     1      -6.444   8.235  26.239  0.00  0.00    +0.145 HD
ATOM     19  H   UNL     1      -6.922   8.972  27.740  0.00  0.00    +0.145 HD
ATOM     20  N   UNL     1      -6.545  11.252  27.075  0.00  0.00    -0.198 NA
BRANCH  14  21
ATOM     21  C   UNL     1      -4.966  11.303  23.158  0.00  0.00    +0.001 A 
ATOM     22  C   UNL     1      -3.595  11.162  22.876  0.00  0.00    +0.010 A 
ATOM     23  C   UNL     1      -3.108  10.989  21.569  0.00  0.00    +0.001 A 
ATOM     24  C   UNL     1      -3.979  10.890  20.501  0.00  0.00    +0.000 A 
ATOM     25  C   UNL     1      -5.350  10.968  20.735  0.00  0.00    +0.001 A 
ATOM     26  C   UNL     1      -5.823  11.183  22.038  0.00  0.00    +0.010 A 
ENDBRANCH  14  21
BRANCH  13  27
ATOM     27  C   UNL     1      -5.287  13.993  24.610  0.00  0.00    +0.069 C 
BRANCH  27  28
ATOM     28  C   UNL     1      -6.149  14.721  23.598  0.00  0.00    +0.164 C 
BRANCH  28  29
ATOM     29  O   UNL     1      -5.709  14.671  22.235  0.00  0.00    -0.380 OA
BRANCH  29  30
ATOM     30  C   UNL     1      -4.454  15.378  22.191  0.00  0.00    +0.156 C 
ATOM     31  C   UNL     1      -4.656  16.871  22.076  0.00  0.00    +0.034 C 
ENDBRANCH  29  30
ENDBRANCH  28  29
ENDBRANCH  27  28
ENDBRANCH  13  27
ENDBRANCH  10  12
ENDBRANCH   6   8
ENDBRANCH   5   6
ENDBRANCH   1   5
BRANCH   3  32
ATOM     32  C   UNL     1      -2.883  14.217  32.522  0.00  0.00    +0.141 C 
BRANCH  32  33
ATOM     33  C   UNL     1      -3.444  12.823  32.781  0.00  0.00    +0.163 C 
BRANCH  33  34
ATOM     34  O   UNL     1      -4.828  12.913  33.157  0.00  0.00    -0.388 OA
ATOM     35  H   UNL     1      -4.902  13.358  34.005  0.00  0.00    +0.210 HD
ENDBRANCH  33  34
BRANCH  33  36
ATOM     36  C   UNL     1      -3.272  11.957  31.521  0.00  0.00    +0.175 C 
BRANCH  36  37
ATOM     37  C   UNL     1      -4.436  10.973  31.333  0.00  0.00    +0.176 C 
ATOM     38  O   UNL     1      -4.627  10.261  32.586  0.00  0.00    -0.332 OA
ATOM     39  C   UNL     1      -5.772   9.347  32.627  0.00  0.00    +0.277 C 
ATOM     40  C   UNL     1      -5.700   8.336  31.457  0.00  0.00    +0.110 C 
ATOM     41  C   UNL     1      -5.465   9.044  30.106  0.00  0.00    +0.143 C 
ATOM     42  C   UNL     1      -4.252   9.972  30.177  0.00  0.00    +0.133 C 
BRANCH  42  43
ATOM     43  N   UNL     1      -4.091  10.706  28.912  0.00  0.00    -0.308 N 
ATOM     44  H   UNL     1      -4.763  11.429  28.697  0.00  0.00    +0.149 HD
ATOM     45  C   UNL     1      -3.114  10.479  28.029  0.00  0.00    +0.210 C 
ATOM     46  C   UNL     1      -2.121   9.353  28.373  0.00  0.00    +0.109 C 
ATOM     47  O   UNL     1      -2.995  11.120  26.984  0.00  0.00    -0.276 OA
ENDBRANCH  42  43
BRANCH  39  48
ATOM     48  C   UNL     1      -7.100  10.130  32.552  0.00  0.00    +0.414 C 
ATOM     49  O   UNL     1      -8.119   9.582  32.134  0.00  0.00    -0.240 OA
ATOM     50  O   UNL     1      -7.151  11.307  32.908  0.00  0.00    -0.240 OA
ENDBRANCH  39  48
BRANCH  39  51
ATOM     51  O   UNL     1      -5.712   8.608  33.875  0.00  0.00    -0.343 OA
ATOM     52  C   UNL     1      -5.761   7.166  33.735  0.00  0.00    +0.198 C 
ENDBRANCH  39  51
BRANCH  41  53
ATOM     53  O   UNL     1      -5.255   8.071  29.082  0.00  0.00    -0.390 OA
ATOM     54  H   UNL     1      -6.086   7.639  28.874  0.00  0.00    +0.210 HD
ENDBRANCH  41  53
ENDBRANCH  36  37
BRANCH  36  55
ATOM     55  O   UNL     1      -2.021  11.243  31.577  0.00  0.00    -0.387 OA
ATOM     56  H   UNL     1      -1.524  11.403  30.772  0.00  0.00    +0.210 HD
ENDBRANCH  36  55
ENDBRANCH  33  36
ENDBRANCH  32  33
ENDBRANCH   3  32
TORSDOF 19
