REMARK VINA RESULT:    -4.361      2.255      6.562
REMARK INTER + INTRA:         -11.682
REMARK INTER:                  -7.788
REMARK INTRA:                  -3.893
REMARK UNBOUND:                -3.114
REMARK  Name = lig_assembled_10.pdb
REMARK  21 active torsions:
REMARK  status: ('A' for Active; 'I' for Inactive)
REMARK    1  A    between atoms: _2  and  _9
REMARK    2  A    between atoms: _4  and  _20
REMARK    3  A    between atoms: _5  and  _9
REMARK    4  A    between atoms: _5  and  _12
REMARK    5  A    between atoms: _6  and  _7
REMARK    6  A    between atoms: _6  and  _20
REMARK    7  A    between atoms: _9  and  _10
REMARK    8  A    between atoms: _10  and  _11
REMARK    9  A    between atoms: _11  and  _14
REMARK   10  A    between atoms: _16  and  _36
REMARK   11  A    between atoms: _18  and  _24
REMARK   12  A    between atoms: _19  and  _23
REMARK   13  A    between atoms: _23  and  _24
REMARK   14  A    between atoms: _26  and  _27
REMARK   15  A    between atoms: _28  and  _29
REMARK   16  A    between atoms: _30  and  _32
REMARK   17  A    between atoms: _32  and  _33
REMARK   18  A    between atoms: _32  and  _34
REMARK   19  A    between atoms: _34  and  _35
REMARK   20  A    between atoms: _34  and  _36
REMARK   21  A    between atoms: _37  and  _39
REMARK                            x       y       z     vdW  Elec       q    Type
REMARK                         _______ _______ _______ _____ _____    ______ ____
ROOT
ATOM      1  C   UNL     1      -6.160   8.861  21.740  0.00  0.00    +0.163 C 
ENDROOT
BRANCH   1   2
ATOM      2  O   UNL     1      -7.078   7.764  21.876  0.00  0.00    -0.388 OA
ATOM      3  H   UNL     1      -7.371   7.481  21.007  0.00  0.00    +0.210 HD
ENDBRANCH   1   2
BRANCH   1   4
ATOM      4  C   UNL     1      -6.556  10.028  22.662  0.00  0.00    +0.175 C 
BRANCH   4   5
ATOM      5  C   UNL     1      -5.341  10.865  23.088  0.00  0.00    +0.176 C 
ATOM      6  O   UNL     1      -5.423  11.073  24.525  0.00  0.00    -0.332 OA
ATOM      7  C   UNL     1      -4.284  11.768  25.131  0.00  0.00    +0.277 C 
ATOM      8  C   UNL     1      -4.035  13.121  24.420  0.00  0.00    +0.110 C 
ATOM      9  C   UNL     1      -3.972  12.956  22.887  0.00  0.00    +0.143 C 
ATOM     10  C   UNL     1      -5.204  12.217  22.364  0.00  0.00    +0.133 C 
BRANCH  10  11
ATOM     11  N   UNL     1      -5.092  11.989  20.915  0.00  0.00    -0.308 N 
ATOM     12  H   UNL     1      -4.290  11.473  20.579  0.00  0.00    +0.149 HD
ATOM     13  C   UNL     1      -5.978  12.421  20.013  0.00  0.00    +0.210 C 
ATOM     14  C   UNL     1      -7.174  13.227  20.554  0.00  0.00    +0.109 C 
ATOM     15  O   UNL     1      -5.865  12.202  18.807  0.00  0.00    -0.276 OA
ENDBRANCH  10  11
BRANCH   7  16
ATOM     16  C   UNL     1      -3.009  10.902  25.052  0.00  0.00    +0.414 C 
ATOM     17  O   UNL     1      -1.965  11.287  25.576  0.00  0.00    -0.240 OA
ATOM     18  O   UNL     1      -3.026   9.820  24.464  0.00  0.00    -0.240 OA
ENDBRANCH   7  16
BRANCH   7  19
ATOM     19  O   UNL     1      -4.608  12.034  26.520  0.00  0.00    -0.343 OA
ATOM     20  C   UNL     1      -5.616  13.054  26.729  0.00  0.00    +0.198 C 
ENDBRANCH   7  19
BRANCH   9  21
ATOM     21  O   UNL     1      -3.894  14.240  22.267  0.00  0.00    -0.390 OA
ATOM     22  H   UNL     1      -3.046  14.332  21.826  0.00  0.00    +0.210 HD
ENDBRANCH   9  21
ENDBRANCH   4   5
BRANCH   4  23
ATOM     23  O   UNL     1      -7.248   9.529  23.824  0.00  0.00    -0.387 OA
ATOM     24  H   UNL     1      -8.125   9.918  23.865  0.00  0.00    +0.210 HD
ENDBRANCH   4  23
ENDBRANCH   1   4
BRANCH   1  25
ATOM     25  C   UNL     1      -4.745   8.403  22.077  0.00  0.00    +0.141 C 
BRANCH  25  28
ATOM     26  C   UNL     1      -3.801   6.417  23.205  0.00  0.00    +0.401 C 
ATOM     27  O   UNL     1      -2.848   6.314  22.430  0.00  0.00    -0.226 OA
ATOM     28  N   UNL     1      -4.740   7.360  23.111  0.00  0.00    -0.279 N 
ATOM     29  H   UNL     1      -5.489   7.357  23.789  0.00  0.00    +0.152 HD
BRANCH  26  30
ATOM     30  O   UNL     1      -3.932   5.478  24.275  0.00  0.00    -0.444 OA
BRANCH  30  31
ATOM     31  C   UNL     1      -2.753   5.509  25.085  0.00  0.00    +0.292 C 
BRANCH  31  33
ATOM     32  N   UNL     1      -1.709   7.285  26.460  0.00  0.00    -0.131 NA
ATOM     33  C   UNL     1      -2.832   6.615  26.059  0.00  0.00    +0.120 A 
ATOM     34  C   UNL     1      -3.929   7.153  26.693  0.00  0.00    +0.138 A 
ATOM     35  N   UNL     1      -3.418   8.175  27.433  0.00  0.00    -0.237 N 
ATOM     36  N   UNL     1      -2.077   8.233  27.308  0.00  0.00    -0.065 NA
BRANCH  35  37
ATOM     37  C   UNL     1      -4.073   9.153  28.287  0.00  0.00    +0.227 C 
BRANCH  37  38
ATOM     38  C   UNL     1      -3.127  10.025  29.084  0.00  0.00    +0.330 C 
ATOM     39  O   UNL     1      -2.751   9.708  30.208  0.00  0.00    -0.249 OA
BRANCH  38  40
ATOM     40  O   UNL     1      -2.673  11.151  28.495  0.00  0.00    -0.479 OA
ATOM     41  H   UNL     1      -3.123  11.998  28.747  0.00  0.00    +0.295 HD
ENDBRANCH  38  40
ENDBRANCH  37  38
BRANCH  37  42
ATOM     42  C   UNL     1      -5.205   8.580  29.150  0.00  0.00    +0.158 C 
BRANCH  42  43
ATOM     43  C   UNL     1      -6.562   8.986  28.645  0.00  0.00    +0.307 C 
ATOM     44  O   UNL     1      -7.614   8.600  29.141  0.00  0.00    -0.251 OA
BRANCH  43  45
ATOM     45  O   UNL     1      -6.519   9.882  27.642  0.00  0.00    -0.481 OA
ATOM     46  H   UNL     1      -6.706  10.806  27.900  0.00  0.00    +0.295 HD
ENDBRANCH  43  45
ENDBRANCH  42  43
ENDBRANCH  37  42
ENDBRANCH  35  37
ENDBRANCH  31  33
ENDBRANCH  30  31
ENDBRANCH  26  30
ENDBRANCH  25  28
ENDBRANCH   1  25
TORSDOF 19
