REMARK VINA RESULT:    -4.735      3.514      5.218
REMARK INTER + INTRA:         -11.109
REMARK INTER:                  -8.165
REMARK INTRA:                  -2.944
REMARK UNBOUND:                -2.913
REMARK  Name = lig_assembled_93.pdb
REMARK  16 active torsions:
REMARK  status: ('A' for Active; 'I' for Inactive)
REMARK    1  A    between atoms: _2  and  _9
REMARK    2  A    between atoms: _4  and  _18
REMARK    3  A    between atoms: _6  and  _7
REMARK    4  A    between atoms: _6  and  _18
REMARK    5  A    between atoms: _14  and  _34
REMARK    6  A    between atoms: _16  and  _22
REMARK    7  A    between atoms: _17  and  _21
REMARK    8  A    between atoms: _21  and  _22
REMARK    9  A    between atoms: _24  and  _25
REMARK   10  A    between atoms: _26  and  _27
REMARK   11  A    between atoms: _28  and  _30
REMARK   12  A    between atoms: _30  and  _31
REMARK   13  A    between atoms: _30  and  _32
REMARK   14  A    between atoms: _32  and  _33
REMARK   15  A    between atoms: _32  and  _34
REMARK   16  A    between atoms: _35  and  _37
REMARK                            x       y       z     vdW  Elec       q    Type
REMARK                         _______ _______ _______ _____ _____    ______ ____
ROOT
ATOM      1  C   UNL     1      -3.806  13.561  22.322  0.00  0.00    +0.163 C 
ENDROOT
BRANCH   1   2
ATOM      2  O   UNL     1      -3.002  14.751  22.275  0.00  0.00    -0.388 OA
ATOM      3  H   UNL     1      -2.509  14.772  21.451  0.00  0.00    +0.210 HD
ENDBRANCH   1   2
BRANCH   1   4
ATOM      4  C   UNL     1      -3.103  12.426  21.585  0.00  0.00    +0.141 C 
BRANCH   4   7
ATOM      5  C   UNL     1      -3.610  10.062  22.095  0.00  0.00    +0.401 C 
ATOM      6  O   UNL     1      -4.310   9.898  21.093  0.00  0.00    -0.226 OA
ATOM      7  N   UNL     1      -3.013  11.213  22.407  0.00  0.00    -0.279 N 
ATOM      8  H   UNL     1      -2.466  11.252  23.256  0.00  0.00    +0.152 HD
BRANCH   5   9
ATOM      9  O   UNL     1      -3.418   8.968  22.995  0.00  0.00    -0.444 OA
BRANCH   9  10
ATOM     10  C   UNL     1      -4.396   9.027  24.036  0.00  0.00    +0.292 C 
BRANCH  10  12
ATOM     11  N   UNL     1      -2.505   9.946  25.328  0.00  0.00    -0.131 NA
ATOM     12  C   UNL     1      -3.771   9.453  25.302  0.00  0.00    +0.121 A 
ATOM     13  C   UNL     1      -4.274   9.454  26.582  0.00  0.00    +0.143 A 
ATOM     14  N   UNL     1      -3.270   9.981  27.377  0.00  0.00    -0.219 N 
ATOM     15  N   UNL     1      -2.212  10.255  26.582  0.00  0.00    -0.060 NA
BRANCH  14  16
ATOM     16  C   UNL     1      -3.296  10.230  28.786  0.00  0.00    +0.080 A 
ATOM     17  C   UNL     1      -3.680  11.523  29.215  0.00  0.00    +0.029 A 
ATOM     18  C   UNL     1      -3.718  11.868  30.569  0.00  0.00    +0.002 A 
ATOM     19  C   UNL     1      -3.378  10.933  31.531  0.00  0.00    +0.001 A 
ATOM     20  C   UNL     1      -3.004   9.650  31.138  0.00  0.00    +0.016 A 
ATOM     21  C   UNL     1      -2.960   9.283  29.776  0.00  0.00    +0.039 A 
ATOM     22  I   UNL     1      -2.361   7.272  29.502  0.00  0.00    -0.042 I 
ENDBRANCH  14  16
ENDBRANCH  10  12
ENDBRANCH   9  10
ENDBRANCH   5   9
ENDBRANCH   4   7
ENDBRANCH   1   4
BRANCH   1  23
ATOM     23  C   UNL     1      -5.188  13.806  21.691  0.00  0.00    +0.175 C 
BRANCH  23  24
ATOM     24  C   UNL     1      -5.951  14.939  22.393  0.00  0.00    +0.176 C 
ATOM     25  O   UNL     1      -5.308  16.195  22.043  0.00  0.00    -0.332 OA
ATOM     26  C   UNL     1      -5.968  17.406  22.540  0.00  0.00    +0.277 C 
ATOM     27  C   UNL     1      -6.159  17.326  24.075  0.00  0.00    +0.110 C 
ATOM     28  C   UNL     1      -6.811  15.993  24.499  0.00  0.00    +0.143 C 
ATOM     29  C   UNL     1      -6.046  14.800  23.924  0.00  0.00    +0.133 C 
BRANCH  29  30
ATOM     30  N   UNL     1      -6.727  13.540  24.262  0.00  0.00    -0.308 N 
ATOM     31  H   UNL     1      -7.618  13.354  23.825  0.00  0.00    +0.149 HD
ATOM     32  C   UNL     1      -6.243  12.627  25.108  0.00  0.00    +0.210 C 
ATOM     33  C   UNL     1      -4.894  12.953  25.776  0.00  0.00    +0.109 C 
ATOM     34  O   UNL     1      -6.828  11.573  25.361  0.00  0.00    -0.276 OA
ENDBRANCH  29  30
BRANCH  26  35
ATOM     35  C   UNL     1      -7.338  17.601  21.859  0.00  0.00    +0.414 C 
ATOM     36  O   UNL     1      -7.503  17.262  20.688  0.00  0.00    -0.240 OA
ATOM     37  O   UNL     1      -8.279  18.097  22.481  0.00  0.00    -0.240 OA
ENDBRANCH  26  35
BRANCH  28  38
ATOM     38  O   UNL     1      -6.830  15.897  25.923  0.00  0.00    -0.390 OA
ATOM     39  H   UNL     1      -7.383  15.159  26.188  0.00  0.00    +0.210 HD
ENDBRANCH  28  38
BRANCH  26  40
ATOM     40  O   UNL     1      -5.110  18.538  22.245  0.00  0.00    -0.343 OA
ATOM     41  C   UNL     1      -3.936  18.227  21.454  0.00  0.00    +0.198 C 
ENDBRANCH  26  40
ENDBRANCH  23  24
BRANCH  23  42
ATOM     42  O   UNL     1      -5.967  12.593  21.715  0.00  0.00    -0.387 OA
ATOM     43  H   UNL     1      -6.845  12.769  21.368  0.00  0.00    +0.210 HD
ENDBRANCH  23  42
ENDBRANCH   1  23
TORSDOF 14
