REMARK VINA RESULT:    -4.485      2.614      7.568
REMARK INTER + INTRA:         -10.928
REMARK INTER:                  -8.025
REMARK INTRA:                  -2.903
REMARK UNBOUND:                -2.903
REMARK  Name = lig_assembled_69.pdb
REMARK  18 active torsions:
REMARK  status: ('A' for Active; 'I' for Inactive)
REMARK    1  A    between atoms: _2  and  _9
REMARK    2  A    between atoms: _4  and  _21
REMARK    3  A    between atoms: _6  and  _7
REMARK    4  A    between atoms: _6  and  _21
REMARK    5  A    between atoms: _11  and  _16
REMARK    6  A    between atoms: _14  and  _15
REMARK    7  A    between atoms: _17  and  _37
REMARK    8  A    between atoms: _19  and  _25
REMARK    9  A    between atoms: _20  and  _24
REMARK   10  A    between atoms: _24  and  _25
REMARK   11  A    between atoms: _27  and  _28
REMARK   12  A    between atoms: _29  and  _30
REMARK   13  A    between atoms: _31  and  _33
REMARK   14  A    between atoms: _33  and  _34
REMARK   15  A    between atoms: _33  and  _35
REMARK   16  A    between atoms: _35  and  _36
REMARK   17  A    between atoms: _35  and  _37
REMARK   18  A    between atoms: _38  and  _40
REMARK                            x       y       z     vdW  Elec       q    Type
REMARK                         _______ _______ _______ _____ _____    ______ ____
ROOT
ATOM      1  C   UNL     1      -5.010   8.260  22.574  0.00  0.00    +0.163 C 
ENDROOT
BRANCH   1   2
ATOM      2  O   UNL     1      -4.993   7.678  21.260  0.00  0.00    -0.388 OA
ATOM      3  H   UNL     1      -5.476   8.244  20.652  0.00  0.00    +0.210 HD
ENDBRANCH   1   2
BRANCH   1   4
ATOM      4  C   UNL     1      -5.834   9.560  22.589  0.00  0.00    +0.175 C 
BRANCH   4   5
ATOM      5  C   UNL     1      -5.029  10.747  23.138  0.00  0.00    +0.176 C 
ATOM      6  O   UNL     1      -5.135  10.727  24.588  0.00  0.00    -0.332 OA
ATOM      7  C   UNL     1      -4.338  11.734  25.296  0.00  0.00    +0.277 C 
ATOM      8  C   UNL     1      -4.664  13.152  24.767  0.00  0.00    +0.110 C 
ATOM      9  C   UNL     1      -4.596  13.215  23.227  0.00  0.00    +0.143 C 
ATOM     10  C   UNL     1      -5.458  12.123  22.594  0.00  0.00    +0.133 C 
BRANCH  10  11
ATOM     11  N   UNL     1      -5.317  12.138  21.129  0.00  0.00    -0.308 N 
ATOM     12  H   UNL     1      -4.406  11.937  20.742  0.00  0.00    +0.149 HD
ATOM     13  C   UNL     1      -6.313  12.399  20.279  0.00  0.00    +0.210 C 
ATOM     14  C   UNL     1      -7.684  12.727  20.903  0.00  0.00    +0.109 C 
ATOM     15  O   UNL     1      -6.169  12.391  19.056  0.00  0.00    -0.276 OA
ENDBRANCH  10  11
BRANCH   7  16
ATOM     16  C   UNL     1      -2.830  11.455  25.127  0.00  0.00    +0.414 C 
ATOM     17  O   UNL     1      -2.420  10.298  25.036  0.00  0.00    -0.240 OA
ATOM     18  O   UNL     1      -2.024  12.385  25.082  0.00  0.00    -0.240 OA
ENDBRANCH   7  16
BRANCH   7  19
ATOM     19  O   UNL     1      -4.690  11.678  26.702  0.00  0.00    -0.343 OA
ATOM     20  C   UNL     1      -5.942  12.324  27.046  0.00  0.00    +0.198 C 
ENDBRANCH   7  19
BRANCH   9  21
ATOM     21  O   UNL     1      -5.048  14.492  22.776  0.00  0.00    -0.390 OA
ATOM     22  H   UNL     1      -5.763  14.796  23.340  0.00  0.00    +0.210 HD
ENDBRANCH   9  21
ENDBRANCH   4   5
BRANCH   4  23
ATOM     23  O   UNL     1      -7.037   9.376  23.361  0.00  0.00    -0.387 OA
ATOM     24  H   UNL     1      -7.680   8.889  22.841  0.00  0.00    +0.210 HD
ENDBRANCH   4  23
ENDBRANCH   1   4
BRANCH   1  25
ATOM     25  C   UNL     1      -5.599   7.272  23.575  0.00  0.00    +0.141 C 
BRANCH  25  28
ATOM     26  C   UNL     1      -3.968   6.831  25.378  0.00  0.00    +0.401 C 
ATOM     27  O   UNL     1      -3.324   6.009  24.722  0.00  0.00    -0.226 OA
ATOM     28  N   UNL     1      -5.049   7.465  24.922  0.00  0.00    -0.279 N 
ATOM     29  H   UNL     1      -5.516   8.115  25.539  0.00  0.00    +0.152 HD
BRANCH  26  30
ATOM     30  O   UNL     1      -3.552   7.135  26.712  0.00  0.00    -0.444 OA
BRANCH  30  31
ATOM     31  C   UNL     1      -4.648   7.700  27.437  0.00  0.00    +0.292 C 
BRANCH  31  33
ATOM     32  N   UNL     1      -2.850   9.095  28.402  0.00  0.00    -0.131 NA
ATOM     33  C   UNL     1      -4.162   8.704  28.401  0.00  0.00    +0.120 A 
ATOM     34  C   UNL     1      -4.834   9.378  29.397  0.00  0.00    +0.137 A 
ATOM     35  N   UNL     1      -3.873  10.153  29.975  0.00  0.00    -0.248 N 
ATOM     36  N   UNL     1      -2.683   9.979  29.374  0.00  0.00    -0.065 NA
BRANCH  35  37
ATOM     37  C   UNL     1      -4.004  11.039  31.130  0.00  0.00    +0.114 C 
ATOM     38  C   UNL     1      -4.851  12.274  30.799  0.00  0.00    +0.062 C 
ATOM     39  C   UNL     1      -4.113  13.444  30.145  0.00  0.00    +0.139 C 
ATOM     40  C   UNL     1      -3.155  14.203  31.019  0.00  0.00    +0.002 C 
ATOM     41  C   UNL     1      -2.552  13.802  32.150  0.00  0.00    +0.002 C 
ATOM     42  C   UNL     1      -2.565  12.434  32.761  0.00  0.00    +0.139 C 
ATOM     43  C   UNL     1      -2.624  11.292  31.753  0.00  0.00    +0.062 C 
BRANCH  39  44
ATOM     44  O   UNL     1      -5.108  14.398  29.750  0.00  0.00    -0.388 OA
ATOM     45  H   UNL     1      -4.802  15.273  30.043  0.00  0.00    +0.210 HD
ENDBRANCH  39  44
BRANCH  42  46
ATOM     46  O   UNL     1      -3.641  12.340  33.681  0.00  0.00    -0.388 OA
ATOM     47  H   UNL     1      -3.552  11.490  34.145  0.00  0.00    +0.210 HD
ENDBRANCH  42  46
ENDBRANCH  35  37
ENDBRANCH  31  33
ENDBRANCH  30  31
ENDBRANCH  26  30
ENDBRANCH  25  28
ENDBRANCH   1  25
TORSDOF 16
