REMARK VINA RESULT:    -4.590      2.176      2.631
REMARK INTER + INTRA:         -12.966
REMARK INTER:                  -9.930
REMARK INTRA:                  -3.036
REMARK UNBOUND:                -4.083
REMARK  Name = lig_assembled_83.pdb
REMARK  20 active torsions:
REMARK  status: ('A' for Active; 'I' for Inactive)
REMARK    1  A    between atoms: _2  and  _12
REMARK    2  A    between atoms: _3  and  _14
REMARK    3  A    between atoms: _7  and  _24
REMARK    4  A    between atoms: _9  and  _10
REMARK    5  A    between atoms: _9  and  _24
REMARK    6  A    between atoms: _12  and  _13
REMARK    7  A    between atoms: _13  and  _14
REMARK    8  A    between atoms: _13  and  _18
REMARK    9  A    between atoms: _20  and  _40
REMARK   10  A    between atoms: _22  and  _28
REMARK   11  A    between atoms: _23  and  _27
REMARK   12  A    between atoms: _27  and  _28
REMARK   13  A    between atoms: _30  and  _31
REMARK   14  A    between atoms: _32  and  _33
REMARK   15  A    between atoms: _34  and  _36
REMARK   16  A    between atoms: _36  and  _37
REMARK   17  A    between atoms: _36  and  _38
REMARK   18  A    between atoms: _38  and  _39
REMARK   19  A    between atoms: _38  and  _40
REMARK   20  A    between atoms: _41  and  _43
REMARK                            x       y       z     vdW  Elec       q    Type
REMARK                         _______ _______ _______ _____ _____    ______ ____
ROOT
ATOM      1  C   UNL     1      -2.983  12.997  24.297  0.00  0.00    +0.141 C 
ENDROOT
BRANCH   1   4
ATOM      2  C   UNL     1      -4.915  13.524  22.850  0.00  0.00    +0.401 C 
ATOM      3  O   UNL     1      -5.579  14.026  23.759  0.00  0.00    -0.226 OA
ATOM      4  N   UNL     1      -3.694  13.012  23.013  0.00  0.00    -0.279 N 
ATOM      5  H   UNL     1      -3.232  12.613  22.208  0.00  0.00    +0.152 HD
BRANCH   2   6
ATOM      6  O   UNL     1      -5.469  13.471  21.533  0.00  0.00    -0.444 OA
BRANCH   6   7
ATOM      7  C   UNL     1      -6.421  12.407  21.456  0.00  0.00    +0.292 C 
BRANCH   7   9
ATOM      8  N   UNL     1      -4.762  10.816  20.519  0.00  0.00    -0.131 NA
ATOM      9  C   UNL     1      -5.998  11.406  20.461  0.00  0.00    +0.120 A 
ATOM     10  C   UNL     1      -6.682  10.903  19.377  0.00  0.00    +0.137 A 
ATOM     11  N   UNL     1      -5.817  10.006  18.831  0.00  0.00    -0.249 N 
ATOM     12  N   UNL     1      -4.658   9.962  19.508  0.00  0.00    -0.065 NA
BRANCH  11  13
ATOM     13  C   UNL     1      -6.012   9.192  17.650  0.00  0.00    +0.178 C 
BRANCH  13  14
ATOM     14  C   UNL     1      -4.710   8.999  16.868  0.00  0.00    +0.156 C 
BRANCH  14  15
ATOM     15  O   UNL     1      -4.009   7.853  17.365  0.00  0.00    -0.388 OA
ATOM     16  H   UNL     1      -4.161   7.089  16.772  0.00  0.00    +0.210 HD
ENDBRANCH  14  15
BRANCH  14  17
ATOM     17  C   UNL     1      -5.002   8.836  15.368  0.00  0.00    +0.162 C 
BRANCH  17  18
ATOM     18  N   UNL     1      -3.988   9.458  14.531  0.00  0.00    -0.269 N 
ATOM     19  C   UNL     1      -4.040  10.773  14.129  0.00  0.00    +0.113 A 
ATOM     20  C   UNL     1      -2.899  10.979  13.390  0.00  0.00    +0.137 A 
ATOM     21  N   UNL     1      -2.164   9.828  13.301  0.00  0.00    -0.172 NA
ATOM     22  C   UNL     1      -2.835   8.931  13.999  0.00  0.00    +0.450 A 
ATOM     23  N   UNL     1      -2.375   7.570  14.163  0.00  0.00    +0.120 N 
ATOM     24  O   UNL     1      -3.076   6.802  14.840  0.00  0.00    +0.045 OA
ATOM     25  O   UNL     1      -1.316   7.256  13.605  0.00  0.00    -0.573 OA
ENDBRANCH  17  18
ENDBRANCH  14  17
ENDBRANCH  13  14
ENDBRANCH  11  13
ENDBRANCH   7   9
ENDBRANCH   6   7
ENDBRANCH   2   6
ENDBRANCH   1   4
BRANCH   1  26
ATOM     26  C   UNL     1      -3.276  11.730  25.095  0.00  0.00    +0.163 C 
BRANCH  26  27
ATOM     27  O   UNL     1      -2.156  10.833  25.022  0.00  0.00    -0.388 OA
ATOM     28  H   UNL     1      -1.585  10.970  25.782  0.00  0.00    +0.210 HD
ENDBRANCH  26  27
BRANCH  26  29
ATOM     29  C   UNL     1      -3.589  12.102  26.554  0.00  0.00    +0.175 C 
BRANCH  29  30
ATOM     30  C   UNL     1      -3.394  10.914  27.508  0.00  0.00    +0.176 C 
ATOM     31  O   UNL     1      -4.046   9.756  26.918  0.00  0.00    -0.332 OA
ATOM     32  C   UNL     1      -3.873   8.493  27.643  0.00  0.00    +0.277 C 
ATOM     33  C   UNL     1      -4.320   8.651  29.118  0.00  0.00    +0.110 C 
ATOM     34  C   UNL     1      -3.677   9.889  29.778  0.00  0.00    +0.143 C 
ATOM     35  C   UNL     1      -3.915  11.144  28.939  0.00  0.00    +0.133 C 
BRANCH  35  36
ATOM     36  N   UNL     1      -3.224  12.300  29.533  0.00  0.00    -0.308 N 
ATOM     37  H   UNL     1      -2.214  12.289  29.549  0.00  0.00    +0.149 HD
ATOM     38  C   UNL     1      -3.845  13.362  30.052  0.00  0.00    +0.210 C 
ATOM     39  C   UNL     1      -5.385  13.337  30.036  0.00  0.00    +0.109 C 
ATOM     40  O   UNL     1      -3.241  14.323  30.530  0.00  0.00    -0.276 OA
ENDBRANCH  35  36
BRANCH  32  41
ATOM     41  C   UNL     1      -2.402   8.033  27.597  0.00  0.00    +0.414 C 
ATOM     42  O   UNL     1      -1.942   7.332  28.498  0.00  0.00    -0.240 OA
ATOM     43  O   UNL     1      -1.674   8.362  26.659  0.00  0.00    -0.240 OA
ENDBRANCH  32  41
BRANCH  32  44
ATOM     44  O   UNL     1      -4.718   7.495  27.014  0.00  0.00    -0.343 OA
ATOM     45  C   UNL     1      -4.895   7.657  25.584  0.00  0.00    +0.198 C 
ENDBRANCH  32  44
BRANCH  34  46
ATOM     46  O   UNL     1      -4.230  10.082  31.081  0.00  0.00    -0.390 OA
ATOM     47  H   UNL     1      -4.274   9.239  31.538  0.00  0.00    +0.210 HD
ENDBRANCH  34  46
ENDBRANCH  29  30
BRANCH  29  48
ATOM     48  O   UNL     1      -4.935  12.608  26.660  0.00  0.00    -0.387 OA
ATOM     49  H   UNL     1      -4.937  13.401  27.202  0.00  0.00    +0.210 HD
ENDBRANCH  29  48
ENDBRANCH  26  29
ENDBRANCH   1  26
TORSDOF 18
