REMARK VINA RESULT:    -5.457      3.153      9.973
REMARK INTER + INTRA:         -13.080
REMARK INTER:                  -9.687
REMARK INTRA:                  -3.393
REMARK UNBOUND:                -2.678
REMARK  Name = lig_assembled_26.pdb
REMARK  20 active torsions:
REMARK  status: ('A' for Active; 'I' for Inactive)
REMARK    1  A    between atoms: _2  and  _9
REMARK    2  A    between atoms: _4  and  _23
REMARK    3  A    between atoms: _6  and  _7
REMARK    4  A    between atoms: _6  and  _23
REMARK    5  A    between atoms: _9  and  _10
REMARK    6  A    between atoms: _9  and  _11
REMARK    7  A    between atoms: _11  and  _12
REMARK    8  A    between atoms: _12  and  _13
REMARK    9  A    between atoms: _19  and  _39
REMARK   10  A    between atoms: _21  and  _27
REMARK   11  A    between atoms: _22  and  _26
REMARK   12  A    between atoms: _26  and  _27
REMARK   13  A    between atoms: _29  and  _30
REMARK   14  A    between atoms: _31  and  _32
REMARK   15  A    between atoms: _33  and  _35
REMARK   16  A    between atoms: _35  and  _36
REMARK   17  A    between atoms: _35  and  _37
REMARK   18  A    between atoms: _37  and  _38
REMARK   19  A    between atoms: _37  and  _39
REMARK   20  A    between atoms: _40  and  _42
REMARK                            x       y       z     vdW  Elec       q    Type
REMARK                         _______ _______ _______ _____ _____    ______ ____
ROOT
ATOM      1  C   UNL     1      -1.875   8.490  13.767  0.00  0.00    +0.163 C 
ENDROOT
BRANCH   1   2
ATOM      2  O   UNL     1      -1.904   8.232  12.354  0.00  0.00    -0.388 OA
ATOM      3  H   UNL     1      -2.081   7.301  12.202  0.00  0.00    +0.210 HD
ENDBRANCH   1   2
BRANCH   1   4
ATOM      4  C   UNL     1      -3.076   9.352  14.193  0.00  0.00    +0.175 C 
BRANCH   4   5
ATOM      5  C   UNL     1      -3.416  10.427  13.149  0.00  0.00    +0.176 C 
ATOM      6  O   UNL     1      -2.167  11.013  12.689  0.00  0.00    -0.332 OA
ATOM      7  C   UNL     1      -2.288  11.992  11.605  0.00  0.00    +0.277 C 
ATOM      8  C   UNL     1      -3.280  13.114  11.998  0.00  0.00    +0.110 C 
ATOM      9  C   UNL     1      -4.612  12.539  12.524  0.00  0.00    +0.143 C 
ATOM     10  C   UNL     1      -4.369  11.530  13.646  0.00  0.00    +0.133 C 
BRANCH  10  11
ATOM     11  N   UNL     1      -5.638  10.924  14.079  0.00  0.00    -0.308 N 
ATOM     12  H   UNL     1      -6.101  10.292  13.441  0.00  0.00    +0.149 HD
ATOM     13  C   UNL     1      -6.218  11.155  15.260  0.00  0.00    +0.210 C 
ATOM     14  C   UNL     1      -5.501  12.144  16.199  0.00  0.00    +0.109 C 
ATOM     15  O   UNL     1      -7.274  10.623  15.602  0.00  0.00    -0.276 OA
ENDBRANCH  10  11
BRANCH   7  16
ATOM     16  C   UNL     1      -2.767  11.313  10.305  0.00  0.00    +0.414 C 
ATOM     17  O   UNL     1      -3.184  11.992   9.368  0.00  0.00    -0.240 OA
ATOM     18  O   UNL     1      -2.736  10.086  10.194  0.00  0.00    -0.240 OA
ENDBRANCH   7  16
BRANCH   7  19
ATOM     19  O   UNL     1      -0.983  12.590  11.392  0.00  0.00    -0.343 OA
ATOM     20  C   UNL     1      -0.764  13.845  12.083  0.00  0.00    +0.198 C 
ENDBRANCH   7  19
BRANCH   9  21
ATOM     21  O   UNL     1      -5.435  13.598  13.014  0.00  0.00    -0.390 OA
ATOM     22  H   UNL     1      -4.893  14.230  13.493  0.00  0.00    +0.210 HD
ENDBRANCH   9  21
ENDBRANCH   4   5
BRANCH   4  23
ATOM     23  O   UNL     1      -2.818   9.966  15.472  0.00  0.00    -0.387 OA
ATOM     24  H   UNL     1      -3.628  10.356  15.809  0.00  0.00    +0.210 HD
ENDBRANCH   4  23
ENDBRANCH   1   4
BRANCH   1  25
ATOM     25  C   UNL     1      -1.894   7.175  14.539  0.00  0.00    +0.141 C 
BRANCH  25  28
ATOM     26  C   UNL     1      -3.487   6.277  16.201  0.00  0.00    +0.401 C 
ATOM     27  O   UNL     1      -2.611   5.969  17.013  0.00  0.00    -0.226 OA
ATOM     28  N   UNL     1      -3.241   6.839  15.017  0.00  0.00    -0.279 N 
ATOM     29  H   UNL     1      -4.025   7.046  14.415  0.00  0.00    +0.152 HD
BRANCH  26  30
ATOM     30  O   UNL     1      -4.856   6.021  16.525  0.00  0.00    -0.444 OA
BRANCH  30  31
ATOM     31  C   UNL     1      -5.648   7.163  16.190  0.00  0.00    +0.292 C 
BRANCH  31  33
ATOM     32  N   UNL     1      -7.138   7.687  18.103  0.00  0.00    -0.131 NA
ATOM     33  C   UNL     1      -5.987   7.928  17.403  0.00  0.00    +0.120 A 
ATOM     34  C   UNL     1      -5.284   8.934  18.024  0.00  0.00    +0.137 A 
ATOM     35  N   UNL     1      -6.068   9.288  19.081  0.00  0.00    -0.248 N 
ATOM     36  N   UNL     1      -7.171   8.514  19.141  0.00  0.00    -0.065 NA
BRANCH  35  37
ATOM     37  C   UNL     1      -5.830  10.279  20.119  0.00  0.00    +0.113 C 
ATOM     38  C   UNL     1      -6.981  11.275  20.321  0.00  0.00    +0.033 C 
BRANCH  37  39
ATOM     39  C   UNL     1      -5.382   9.648  21.450  0.00  0.00    +0.106 C 
BRANCH  39  40
ATOM     40  C   UNL     1      -4.073  10.198  21.984  0.00  0.00    +0.165 C 
ATOM     41  O   UNL     1      -3.143   9.468  22.325  0.00  0.00    -0.292 OA
BRANCH  40  42
ATOM     42  C   UNL     1      -3.922  11.677  22.141  0.00  0.00    +0.017 A 
ATOM     43  C   UNL     1      -4.442  12.373  23.239  0.00  0.00    +0.011 A 
ATOM     44  C   UNL     1      -4.235  13.750  23.355  0.00  0.00    +0.001 A 
ATOM     45  C   UNL     1      -3.518  14.437  22.377  0.00  0.00    +0.000 A 
ATOM     46  C   UNL     1      -3.008  13.754  21.277  0.00  0.00    +0.001 A 
ATOM     47  C   UNL     1      -3.208  12.378  21.158  0.00  0.00    +0.011 A 
ENDBRANCH  40  42
ENDBRANCH  39  40
ENDBRANCH  37  39
ENDBRANCH  35  37
ENDBRANCH  31  33
ENDBRANCH  30  31
ENDBRANCH  26  30
ENDBRANCH  25  28
ENDBRANCH   1  25
TORSDOF 17
