REMARK VINA RESULT:    -5.561      1.904      3.230
REMARK INTER + INTRA:         -13.278
REMARK INTER:                 -10.477
REMARK INTRA:                  -2.802
REMARK UNBOUND:                -2.840
REMARK  Name = lig_assembled_77.pdb
REMARK  19 active torsions:
REMARK  status: ('A' for Active; 'I' for Inactive)
REMARK    1  A    between atoms: _2  and  _10
REMARK    2  A    between atoms: _3  and  _17
REMARK    3  A    between atoms: _5  and  _27
REMARK    4  A    between atoms: _7  and  _8
REMARK    5  A    between atoms: _7  and  _27
REMARK    6  A    between atoms: _13  and  _47
REMARK    7  A    between atoms: _14  and  _47
REMARK    8  A    between atoms: _23  and  _43
REMARK    9  A    between atoms: _25  and  _31
REMARK   10  A    between atoms: _26  and  _30
REMARK   11  A    between atoms: _30  and  _31
REMARK   12  A    between atoms: _33  and  _34
REMARK   13  A    between atoms: _35  and  _36
REMARK   14  A    between atoms: _37  and  _39
REMARK   15  A    between atoms: _39  and  _40
REMARK   16  A    between atoms: _39  and  _41
REMARK   17  A    between atoms: _41  and  _42
REMARK   18  A    between atoms: _41  and  _43
REMARK   19  A    between atoms: _44  and  _46
REMARK                            x       y       z     vdW  Elec       q    Type
REMARK                         _______ _______ _______ _____ _____    ______ ____
ROOT
ATOM      1  C   UNL     1      -4.766  12.285  22.124  0.00  0.00    +0.401 C 
ATOM      2  O   UNL     1      -4.508  13.490  22.173  0.00  0.00    -0.226 OA
ATOM      3  N   UNL     1      -4.079  11.349  22.779  0.00  0.00    -0.279 N 
ATOM      4  H   UNL     1      -4.374  10.387  22.683  0.00  0.00    +0.152 HD
ENDROOT
BRANCH   3   5
ATOM      5  C   UNL     1      -2.920  11.636  23.633  0.00  0.00    +0.141 C 
BRANCH   5   6
ATOM      6  C   UNL     1      -3.122  11.127  25.056  0.00  0.00    +0.163 C 
BRANCH   6   7
ATOM      7  O   UNL     1      -1.924  10.483  25.522  0.00  0.00    -0.388 OA
ATOM      8  H   UNL     1      -1.743  10.759  26.424  0.00  0.00    +0.210 HD
ENDBRANCH   6   7
BRANCH   6   9
ATOM      9  C   UNL     1      -3.508  12.301  25.973  0.00  0.00    +0.175 C 
BRANCH   9  10
ATOM     10  C   UNL     1      -4.260  11.832  27.226  0.00  0.00    +0.176 C 
ATOM     11  O   UNL     1      -3.290  11.245  28.137  0.00  0.00    -0.332 OA
ATOM     12  C   UNL     1      -3.814  10.834  29.443  0.00  0.00    +0.277 C 
ATOM     13  C   UNL     1      -5.015   9.872  29.266  0.00  0.00    +0.110 C 
ATOM     14  C   UNL     1      -6.058  10.439  28.281  0.00  0.00    +0.143 C 
ATOM     15  C   UNL     1      -5.404  10.837  26.957  0.00  0.00    +0.133 C 
BRANCH  15  16
ATOM     16  N   UNL     1      -6.393  11.456  26.060  0.00  0.00    -0.308 N 
ATOM     17  H   UNL     1      -6.724  12.382  26.290  0.00  0.00    +0.149 HD
ATOM     18  C   UNL     1      -6.880  10.874  24.960  0.00  0.00    +0.210 C 
ATOM     19  C   UNL     1      -6.374   9.453  24.651  0.00  0.00    +0.109 C 
ATOM     20  O   UNL     1      -7.696  11.423  24.219  0.00  0.00    -0.276 OA
ENDBRANCH  15  16
BRANCH  12  21
ATOM     21  C   UNL     1      -4.255  12.062  30.267  0.00  0.00    +0.414 C 
ATOM     22  O   UNL     1      -3.511  13.036  30.374  0.00  0.00    -0.240 OA
ATOM     23  O   UNL     1      -5.354  12.078  30.823  0.00  0.00    -0.240 OA
ENDBRANCH  12  21
BRANCH  14  24
ATOM     24  O   UNL     1      -7.068   9.460  28.031  0.00  0.00    -0.390 OA
ATOM     25  H   UNL     1      -7.752   9.839  27.475  0.00  0.00    +0.210 HD
ENDBRANCH  14  24
BRANCH  12  26
ATOM     26  O   UNL     1      -2.761  10.126  30.147  0.00  0.00    -0.343 OA
ATOM     27  C   UNL     1      -3.134   9.612  31.450  0.00  0.00    +0.198 C 
ENDBRANCH  12  26
ENDBRANCH   9  10
BRANCH   9  28
ATOM     28  O   UNL     1      -4.302  13.258  25.245  0.00  0.00    -0.387 OA
ATOM     29  H   UNL     1      -5.186  13.291  25.618  0.00  0.00    +0.210 HD
ENDBRANCH   9  28
ENDBRANCH   6   9
ENDBRANCH   5   6
ENDBRANCH   3   5
BRANCH   1  30
ATOM     30  O   UNL     1      -5.866  11.843  21.324  0.00  0.00    -0.444 OA
BRANCH  30  31
ATOM     31  C   UNL     1      -5.716  10.451  21.035  0.00  0.00    +0.292 C 
BRANCH  31  33
ATOM     32  N   UNL     1      -5.115   9.007  19.119  0.00  0.00    -0.131 NA
ATOM     33  C   UNL     1      -5.274  10.258  19.640  0.00  0.00    +0.121 A 
ATOM     34  C   UNL     1      -4.967  11.190  18.675  0.00  0.00    +0.143 A 
ATOM     35  N   UNL     1      -4.630  10.452  17.563  0.00  0.00    -0.220 N 
ATOM     36  N   UNL     1      -4.714   9.132  17.861  0.00  0.00    -0.060 NA
BRANCH  35  37
ATOM     37  C   UNL     1      -4.303  10.906  16.258  0.00  0.00    +0.067 A 
ATOM     38  C   UNL     1      -4.111   9.997  15.206  0.00  0.00    +0.030 A 
ATOM     39  C   UNL     1      -3.671  10.451  13.959  0.00  0.00    +0.029 A 
ATOM     40  C   UNL     1      -3.431  11.813  13.763  0.00  0.00    +0.094 A 
ATOM     41  C   UNL     1      -3.707  12.737  14.775  0.00  0.00    +0.029 A 
ATOM     42  C   UNL     1      -4.132  12.282  16.026  0.00  0.00    +0.030 A 
BRANCH  40  43
ATOM     43  S   UNL     1      -2.804  12.382  12.195  0.00  0.00    +0.025 S 
ATOM     44  O   UNL     1      -1.582  11.635  11.954  0.00  0.00    -0.164 OA
ATOM     45  O   UNL     1      -3.901  12.333  11.247  0.00  0.00    -0.164 OA
BRANCH  43  46
ATOM     46  C   UNL     1      -2.348  14.097  12.345  0.00  0.00    +0.094 A 
ATOM     47  C   UNL     1      -1.028  14.470  12.602  0.00  0.00    +0.029 A 
ATOM     48  C   UNL     1      -0.716  15.824  12.775  0.00  0.00    +0.024 A 
ATOM     49  C   UNL     1      -1.699  16.814  12.649  0.00  0.00    +0.025 A 
ATOM     50  C   UNL     1      -3.021  16.419  12.421  0.00  0.00    +0.024 A 
ATOM     51  C   UNL     1      -3.346  15.071  12.248  0.00  0.00    +0.029 A 
BRANCH  49  52
ATOM     52  N   UNL     1      -1.412  18.138  12.991  0.00  0.00    -0.358 N 
ATOM     53  H   UNL     1      -0.647  18.251  13.649  0.00  0.00    +0.142 HD
ATOM     54  H   UNL     1      -1.341  18.770  12.200  0.00  0.00    +0.142 HD
ENDBRANCH  49  52
ENDBRANCH  43  46
ENDBRANCH  40  43
ENDBRANCH  35  37
ENDBRANCH  31  33
ENDBRANCH  30  31
ENDBRANCH   1  30
TORSDOF 17
