REMARK VINA RESULT:    -4.911      3.221      7.361
REMARK INTER + INTRA:         -11.566
REMARK INTER:                  -7.704
REMARK INTRA:                  -3.862
REMARK UNBOUND:                -2.779
REMARK  Name = lig_assembled_39.pdb
REMARK  17 active torsions:
REMARK  status: ('A' for Active; 'I' for Inactive)
REMARK    1  A    between atoms: _2  and  _9
REMARK    2  A    between atoms: _4  and  _19
REMARK    3  A    between atoms: _6  and  _7
REMARK    4  A    between atoms: _6  and  _19
REMARK    5  A    between atoms: _9  and  _10
REMARK    6  A    between atoms: _15  and  _35
REMARK    7  A    between atoms: _17  and  _23
REMARK    8  A    between atoms: _18  and  _22
REMARK    9  A    between atoms: _22  and  _23
REMARK   10  A    between atoms: _25  and  _26
REMARK   11  A    between atoms: _27  and  _28
REMARK   12  A    between atoms: _29  and  _31
REMARK   13  A    between atoms: _31  and  _32
REMARK   14  A    between atoms: _31  and  _33
REMARK   15  A    between atoms: _33  and  _34
REMARK   16  A    between atoms: _33  and  _35
REMARK   17  A    between atoms: _36  and  _38
REMARK                            x       y       z     vdW  Elec       q    Type
REMARK                         _______ _______ _______ _____ _____    ______ ____
ROOT
ATOM      1  C   UNL     1      -2.971  10.861  26.956  0.00  0.00    +0.163 C 
ENDROOT
BRANCH   1   2
ATOM      2  O   UNL     1      -1.930  11.161  26.012  0.00  0.00    -0.388 OA
ATOM      3  H   UNL     1      -1.422  10.366  25.831  0.00  0.00    +0.210 HD
ENDBRANCH   1   2
BRANCH   1   4
ATOM      4  C   UNL     1      -2.474   9.841  27.975  0.00  0.00    +0.141 C 
BRANCH   4   7
ATOM      5  C   UNL     1      -3.595   9.650  30.168  0.00  0.00    +0.401 C 
ATOM      6  O   UNL     1      -4.259   8.661  29.848  0.00  0.00    -0.226 OA
ATOM      7  N   UNL     1      -2.741  10.270  29.353  0.00  0.00    -0.279 N 
ATOM      8  H   UNL     1      -2.250  11.080  29.704  0.00  0.00    +0.152 HD
BRANCH   5   9
ATOM      9  O   UNL     1      -3.738  10.185  31.486  0.00  0.00    -0.444 OA
BRANCH   9  10
ATOM     10  C   UNL     1      -2.501  10.770  31.901  0.00  0.00    +0.292 C 
BRANCH  10  12
ATOM     11  N   UNL     1      -1.681  13.084  32.215  0.00  0.00    -0.131 NA
ATOM     12  C   UNL     1      -2.703  12.175  32.299  0.00  0.00    +0.120 A 
ATOM     13  C   UNL     1      -3.834  12.809  32.762  0.00  0.00    +0.137 A 
ATOM     14  N   UNL     1      -3.457  14.116  32.862  0.00  0.00    -0.247 N 
ATOM     15  N   UNL     1      -2.147  14.267  32.592  0.00  0.00    -0.065 NA
BRANCH  14  16
ATOM     16  C   UNL     1      -4.298  15.271  33.138  0.00  0.00    +0.181 C 
BRANCH  16  17
ATOM     17  C   UNL     1      -4.984  15.823  31.901  0.00  0.00    -0.012 A 
ATOM     18  C   UNL     1      -4.353  16.787  31.089  0.00  0.00    +0.006 A 
ATOM     19  C   UNL     1      -4.975  17.306  29.951  0.00  0.00    +0.000 A 
ATOM     20  C   UNL     1      -6.255  16.891  29.609  0.00  0.00    +0.001 A 
ATOM     21  C   UNL     1      -6.920  15.972  30.416  0.00  0.00    +0.015 A 
ATOM     22  C   UNL     1      -6.298  15.449  31.558  0.00  0.00    +0.023 A 
ATOM     23 BR   UNL     1      -7.325  14.247  32.614  0.00  0.00    -0.050 Br
ENDBRANCH  16  17
ENDBRANCH  14  16
ENDBRANCH  10  12
ENDBRANCH   9  10
ENDBRANCH   5   9
ENDBRANCH   4   7
ENDBRANCH   1   4
BRANCH   1  24
ATOM     24  C   UNL     1      -4.217  10.309  26.242  0.00  0.00    +0.175 C 
BRANCH  24  25
ATOM     25  C   UNL     1      -5.064  11.424  25.613  0.00  0.00    +0.176 C 
ATOM     26  O   UNL     1      -4.357  11.915  24.441  0.00  0.00    -0.332 OA
ATOM     27  C   UNL     1      -5.070  12.919  23.645  0.00  0.00    +0.277 C 
ATOM     28  C   UNL     1      -5.498  14.111  24.535  0.00  0.00    +0.110 C 
ATOM     29  C   UNL     1      -6.227  13.637  25.810  0.00  0.00    +0.143 C 
ATOM     30  C   UNL     1      -5.398  12.592  26.559  0.00  0.00    +0.133 C 
BRANCH  30  31
ATOM     31  N   UNL     1      -6.140  12.085  27.724  0.00  0.00    -0.308 N 
ATOM     32  H   UNL     1      -6.939  11.491  27.552  0.00  0.00    +0.149 HD
ATOM     33  C   UNL     1      -5.826  12.357  28.993  0.00  0.00    +0.210 C 
ATOM     34  C   UNL     1      -4.619  13.286  29.221  0.00  0.00    +0.109 C 
ATOM     35  O   UNL     1      -6.457  11.905  29.950  0.00  0.00    -0.276 OA
ENDBRANCH  30  31
BRANCH  27  36
ATOM     36  C   UNL     1      -6.315  12.303  22.975  0.00  0.00    +0.414 C 
ATOM     37  O   UNL     1      -7.319  12.987  22.783  0.00  0.00    -0.240 OA
ATOM     38  O   UNL     1      -6.316  11.122  22.625  0.00  0.00    -0.240 OA
ENDBRANCH  27  36
BRANCH  27  39
ATOM     39  O   UNL     1      -4.161  13.413  22.627  0.00  0.00    -0.343 OA
ATOM     40  C   UNL     1      -4.252  14.835  22.363  0.00  0.00    +0.198 C 
ENDBRANCH  27  39
BRANCH  29  41
ATOM     41  O   UNL     1      -6.468  14.751  26.670  0.00  0.00    -0.390 OA
ATOM     42  H   UNL     1      -5.699  14.900  27.226  0.00  0.00    +0.210 HD
ENDBRANCH  29  41
ENDBRANCH  24  25
BRANCH  24  43
ATOM     43  O   UNL     1      -5.016   9.538  27.163  0.00  0.00    -0.387 OA
ATOM     44  H   UNL     1      -4.865   8.602  27.012  0.00  0.00    +0.210 HD
ENDBRANCH  24  43
ENDBRANCH   1  24
TORSDOF 15
