REMARK VINA RESULT:    -4.341      2.775      5.504
REMARK INTER + INTRA:         -11.971
REMARK INTER:                  -8.550
REMARK INTRA:                  -3.421
REMARK UNBOUND:                -3.062
REMARK  Name = lig_assembled_74.pdb
REMARK  24 active torsions:
REMARK  status: ('A' for Active; 'I' for Inactive)
REMARK    1  A    between atoms: _2  and  _9
REMARK    2  A    between atoms: _4  and  _22
REMARK    3  A    between atoms: _5  and  _14
REMARK    4  A    between atoms: _6  and  _7
REMARK    5  A    between atoms: _6  and  _22
REMARK    6  A    between atoms: _9  and  _10
REMARK    7  A    between atoms: _10  and  _11
REMARK    8  A    between atoms: _10  and  _13
REMARK    9  A    between atoms: _11  and  _12
REMARK   10  A    between atoms: _12  and  _16
REMARK   11  A    between atoms: _13  and  _14
REMARK   12  A    between atoms: _14  and  _15
REMARK   13  A    between atoms: _18  and  _38
REMARK   14  A    between atoms: _20  and  _26
REMARK   15  A    between atoms: _21  and  _25
REMARK   16  A    between atoms: _25  and  _26
REMARK   17  A    between atoms: _28  and  _29
REMARK   18  A    between atoms: _30  and  _31
REMARK   19  A    between atoms: _32  and  _34
REMARK   20  A    between atoms: _34  and  _35
REMARK   21  A    between atoms: _34  and  _36
REMARK   22  A    between atoms: _36  and  _37
REMARK   23  A    between atoms: _36  and  _38
REMARK   24  A    between atoms: _39  and  _41
REMARK                            x       y       z     vdW  Elec       q    Type
REMARK                         _______ _______ _______ _____ _____    ______ ____
ROOT
ATOM      1  C   UNL     1      -3.297  11.724  32.364  0.00  0.00    +0.163 C 
ENDROOT
BRANCH   1   2
ATOM      2  O   UNL     1      -1.948  11.229  32.387  0.00  0.00    -0.388 OA
ATOM      3  H   UNL     1      -1.339  11.950  32.216  0.00  0.00    +0.210 HD
ENDBRANCH   1   2
BRANCH   1   4
ATOM      4  C   UNL     1      -3.582  12.484  31.057  0.00  0.00    +0.175 C 
BRANCH   4   5
ATOM      5  C   UNL     1      -5.087  12.648  30.800  0.00  0.00    +0.176 C 
ATOM      6  O   UNL     1      -5.377  12.104  29.483  0.00  0.00    -0.332 OA
ATOM      7  C   UNL     1      -6.794  12.078  29.106  0.00  0.00    +0.277 C 
ATOM      8  C   UNL     1      -7.415  13.490  29.237  0.00  0.00    +0.110 C 
ATOM      9  C   UNL     1      -7.106  14.122  30.611  0.00  0.00    +0.143 C 
ATOM     10  C   UNL     1      -5.605  14.094  30.902  0.00  0.00    +0.133 C 
BRANCH  10  11
ATOM     11  N   UNL     1      -5.332  14.620  32.249  0.00  0.00    -0.308 N 
ATOM     12  H   UNL     1      -5.692  14.103  33.039  0.00  0.00    +0.149 HD
ATOM     13  C   UNL     1      -4.640  15.735  32.496  0.00  0.00    +0.210 C 
ATOM     14  C   UNL     1      -4.127  16.514  31.270  0.00  0.00    +0.109 C 
ATOM     15  O   UNL     1      -4.414  16.144  33.636  0.00  0.00    -0.276 OA
ENDBRANCH  10  11
BRANCH   7  16
ATOM     16  C   UNL     1      -7.577  11.086  29.991  0.00  0.00    +0.414 C 
ATOM     17  O   UNL     1      -8.747  11.316  30.294  0.00  0.00    -0.240 OA
ATOM     18  O   UNL     1      -7.039  10.056  30.401  0.00  0.00    -0.240 OA
ENDBRANCH   7  16
BRANCH   9  19
ATOM     19  O   UNL     1      -7.564  15.475  30.632  0.00  0.00    -0.390 OA
ATOM     20  H   UNL     1      -6.862  16.056  30.332  0.00  0.00    +0.210 HD
ENDBRANCH   9  19
BRANCH   7  21
ATOM     21  O   UNL     1      -6.881  11.667  27.717  0.00  0.00    -0.343 OA
ATOM     22  C   UNL     1      -8.035  12.174  27.000  0.00  0.00    +0.198 C 
ENDBRANCH   7  21
ENDBRANCH   4   5
BRANCH   4  23
ATOM     23  O   UNL     1      -2.958  11.812  29.945  0.00  0.00    -0.387 OA
ATOM     24  H   UNL     1      -2.852  10.880  30.153  0.00  0.00    +0.210 HD
ENDBRANCH   4  23
ENDBRANCH   1   4
BRANCH   1  25
ATOM     25  C   UNL     1      -4.280  10.567  32.505  0.00  0.00    +0.141 C 
BRANCH  25  28
ATOM     26  C   UNL     1      -3.951   8.333  31.501  0.00  0.00    +0.401 C 
ATOM     27  O   UNL     1      -3.755   7.772  32.582  0.00  0.00    -0.226 OA
ATOM     28  N   UNL     1      -4.197   9.637  31.372  0.00  0.00    -0.279 N 
ATOM     29  H   UNL     1      -4.335  10.006  30.441  0.00  0.00    +0.152 HD
BRANCH  26  30
ATOM     30  O   UNL     1      -3.911   7.558  30.300  0.00  0.00    -0.444 OA
BRANCH  30  31
ATOM     31  C   UNL     1      -2.593   7.601  29.747  0.00  0.00    +0.292 C 
BRANCH  31  33
ATOM     32  N   UNL     1      -1.526   8.096  27.560  0.00  0.00    -0.131 NA
ATOM     33  C   UNL     1      -2.615   8.176  28.388  0.00  0.00    +0.120 A 
ATOM     34  C   UNL     1      -3.655   8.769  27.706  0.00  0.00    +0.137 A 
ATOM     35  N   UNL     1      -3.191   8.854  26.424  0.00  0.00    -0.251 N 
ATOM     36  N   UNL     1      -1.884   8.540  26.362  0.00  0.00    -0.065 NA
BRANCH  35  37
ATOM     37  C   UNL     1      -3.985   8.903  25.212  0.00  0.00    +0.149 C 
BRANCH  37  38
ATOM     38  C   UNL     1      -3.837  10.190  24.370  0.00  0.00    +0.021 C 
BRANCH  38  39
ATOM     39  C   UNL     1      -4.165  11.477  25.154  0.00  0.00    +0.125 C 
BRANCH  39  40
ATOM     40  C   UNL     1      -2.985  12.104  25.868  0.00  0.00    +0.305 C 
ATOM     41  O   UNL     1      -2.894  12.246  27.076  0.00  0.00    -0.251 OA
BRANCH  40  42
ATOM     42  O   UNL     1      -1.986  12.442  25.033  0.00  0.00    -0.481 OA
ATOM     43  H   UNL     1      -2.114  13.273  24.540  0.00  0.00    +0.295 HD
ENDBRANCH  40  42
ENDBRANCH  39  40
ENDBRANCH  38  39
BRANCH  38  44
ATOM     44  C   UNL     1      -4.672  10.043  23.064  0.00  0.00    +0.009 C 
BRANCH  44  45
ATOM     45  C   UNL     1      -3.886  10.176  21.743  0.00  0.00    -0.017 C 
ATOM     46  C   UNL     1      -4.810  10.310  20.531  0.00  0.00    +0.007 C 
ATOM     47  C   UNL     1      -2.950  11.389  21.794  0.00  0.00    +0.007 C 
ENDBRANCH  44  45
ENDBRANCH  38  44
ENDBRANCH  37  38
ENDBRANCH  35  37
ENDBRANCH  31  33
ENDBRANCH  30  31
ENDBRANCH  26  30
ENDBRANCH  25  28
ENDBRANCH   1  25
TORSDOF 20
