REMARK VINA RESULT:    -4.208      4.369      7.030
REMARK INTER + INTRA:         -11.381
REMARK INTER:                  -8.268
REMARK INTRA:                  -3.114
REMARK UNBOUND:                -3.114
REMARK  Name = lig_assembled_10.pdb
REMARK  21 active torsions:
REMARK  status: ('A' for Active; 'I' for Inactive)
REMARK    1  A    between atoms: _2  and  _9
REMARK    2  A    between atoms: _4  and  _20
REMARK    3  A    between atoms: _5  and  _9
REMARK    4  A    between atoms: _5  and  _12
REMARK    5  A    between atoms: _6  and  _7
REMARK    6  A    between atoms: _6  and  _20
REMARK    7  A    between atoms: _9  and  _10
REMARK    8  A    between atoms: _10  and  _11
REMARK    9  A    between atoms: _11  and  _14
REMARK   10  A    between atoms: _16  and  _36
REMARK   11  A    between atoms: _18  and  _24
REMARK   12  A    between atoms: _19  and  _23
REMARK   13  A    between atoms: _23  and  _24
REMARK   14  A    between atoms: _26  and  _27
REMARK   15  A    between atoms: _28  and  _29
REMARK   16  A    between atoms: _30  and  _32
REMARK   17  A    between atoms: _32  and  _33
REMARK   18  A    between atoms: _32  and  _34
REMARK   19  A    between atoms: _34  and  _35
REMARK   20  A    between atoms: _34  and  _36
REMARK   21  A    between atoms: _37  and  _39
REMARK                            x       y       z     vdW  Elec       q    Type
REMARK                         _______ _______ _______ _____ _____    ______ ____
ROOT
ATOM      1  C   UNL     1      -6.363   8.952  23.306  0.00  0.00    +0.163 C 
ENDROOT
BRANCH   1   2
ATOM      2  O   UNL     1      -7.112   9.017  24.531  0.00  0.00    -0.388 OA
ATOM      3  H   UNL     1      -7.904   8.480  24.450  0.00  0.00    +0.210 HD
ENDBRANCH   1   2
BRANCH   1   4
ATOM      4  C   UNL     1      -5.016   8.240  23.523  0.00  0.00    +0.175 C 
BRANCH   4   5
ATOM      5  C   UNL     1      -3.997   9.138  24.241  0.00  0.00    +0.176 C 
ATOM      6  O   UNL     1      -4.361   9.192  25.647  0.00  0.00    -0.332 OA
ATOM      7  C   UNL     1      -3.434   9.924  26.515  0.00  0.00    +0.277 C 
ATOM      8  C   UNL     1      -3.208  11.358  25.977  0.00  0.00    +0.110 C 
ATOM      9  C   UNL     1      -2.849  11.354  24.477  0.00  0.00    +0.143 C 
ATOM     10  C   UNL     1      -3.878  10.563  23.669  0.00  0.00    +0.133 C 
BRANCH  10  11
ATOM     11  N   UNL     1      -3.479  10.492  22.254  0.00  0.00    -0.308 N 
ATOM     12  H   UNL     1      -2.670   9.934  22.019  0.00  0.00    +0.149 HD
ATOM     13  C   UNL     1      -4.116  11.118  21.260  0.00  0.00    +0.210 C 
ATOM     14  C   UNL     1      -5.329  11.981  21.654  0.00  0.00    +0.109 C 
ATOM     15  O   UNL     1      -3.768  11.029  20.082  0.00  0.00    -0.276 OA
ENDBRANCH  10  11
BRANCH   7  16
ATOM     16  C   UNL     1      -2.080   9.190  26.611  0.00  0.00    +0.414 C 
ATOM     17  O   UNL     1      -2.045   7.980  26.834  0.00  0.00    -0.240 OA
ATOM     18  O   UNL     1      -1.024   9.806  26.464  0.00  0.00    -0.240 OA
ENDBRANCH   7  16
BRANCH   7  19
ATOM     19  O   UNL     1      -4.032  10.018  27.833  0.00  0.00    -0.343 OA
ATOM     20  C   UNL     1      -4.851  11.195  28.051  0.00  0.00    +0.198 C 
ENDBRANCH   7  19
BRANCH   9  21
ATOM     21  O   UNL     1      -2.798  12.695  23.989  0.00  0.00    -0.390 OA
ATOM     22  H   UNL     1      -1.899  12.909  23.731  0.00  0.00    +0.210 HD
ENDBRANCH   9  21
ENDBRANCH   4   5
BRANCH   4  23
ATOM     23  O   UNL     1      -4.482   7.793  22.261  0.00  0.00    -0.387 OA
ATOM     24  H   UNL     1      -5.177   7.369  21.751  0.00  0.00    +0.210 HD
ENDBRANCH   4  23
ENDBRANCH   1   4
BRANCH   1  25
ATOM     25  C   UNL     1      -7.165   8.211  22.242  0.00  0.00    +0.141 C 
BRANCH  25  28
ATOM     26  C   UNL     1      -7.533   9.632  20.254  0.00  0.00    +0.401 C 
ATOM     27  O   UNL     1      -8.514  10.206  20.730  0.00  0.00    -0.226 OA
ATOM     28  N   UNL     1      -6.845   8.681  20.889  0.00  0.00    -0.279 N 
ATOM     29  H   UNL     1      -6.059   8.262  20.412  0.00  0.00    +0.152 HD
BRANCH  26  30
ATOM     30  O   UNL     1      -7.089   9.986  18.942  0.00  0.00    -0.444 OA
BRANCH  30  31
ATOM     31  C   UNL     1      -7.342   8.902  18.043  0.00  0.00    +0.292 C 
BRANCH  31  33
ATOM     32  N   UNL     1      -4.930   8.338  18.032  0.00  0.00    -0.131 NA
ATOM     33  C   UNL     1      -6.100   8.518  17.346  0.00  0.00    +0.120 A 
ATOM     34  C   UNL     1      -5.880   8.275  16.008  0.00  0.00    +0.138 A 
ATOM     35  N   UNL     1      -4.570   7.911  15.946  0.00  0.00    -0.237 N 
ATOM     36  N   UNL     1      -3.997   7.975  17.165  0.00  0.00    -0.065 NA
BRANCH  35  37
ATOM     37  C   UNL     1      -3.751   7.487  14.822  0.00  0.00    +0.227 C 
BRANCH  37  38
ATOM     38  C   UNL     1      -2.524   6.687  15.204  0.00  0.00    +0.330 C 
ATOM     39  O   UNL     1      -1.404   7.003  14.819  0.00  0.00    -0.249 OA
BRANCH  38  40
ATOM     40  O   UNL     1      -2.701   5.632  16.026  0.00  0.00    -0.479 OA
ATOM     41  H   UNL     1      -3.055   5.827  16.932  0.00  0.00    +0.295 HD
ENDBRANCH  38  40
ENDBRANCH  37  38
BRANCH  37  42
ATOM     42  C   UNL     1      -3.431   8.603  13.819  0.00  0.00    +0.158 C 
BRANCH  42  43
ATOM     43  C   UNL     1      -3.212   9.927  14.496  0.00  0.00    +0.307 C 
ATOM     44  O   UNL     1      -3.991  10.868  14.416  0.00  0.00    -0.251 OA
BRANCH  43  45
ATOM     45  O   UNL     1      -2.111   9.961  15.271  0.00  0.00    -0.481 OA
ATOM     46  H   UNL     1      -1.294   9.631  14.849  0.00  0.00    +0.295 HD
ENDBRANCH  43  45
ENDBRANCH  42  43
ENDBRANCH  37  42
ENDBRANCH  35  37
ENDBRANCH  31  33
ENDBRANCH  30  31
ENDBRANCH  26  30
ENDBRANCH  25  28
ENDBRANCH   1  25
TORSDOF 19
