REMARK VINA RESULT:    -5.538      1.332      1.755
REMARK INTER + INTRA:         -12.356
REMARK INTER:                 -10.009
REMARK INTRA:                  -2.347
REMARK UNBOUND:                -2.447
REMARK  Name = lig_assembled_85.pdb
REMARK  19 active torsions:
REMARK  status: ('A' for Active; 'I' for Inactive)
REMARK    1  A    between atoms: _2  and  _10
REMARK    2  A    between atoms: _3  and  _6
REMARK    3  A    between atoms: _3  and  _17
REMARK    4  A    between atoms: _5  and  _23
REMARK    5  A    between atoms: _7  and  _8
REMARK    6  A    between atoms: _7  and  _23
REMARK    7  A    between atoms: _15  and  _16
REMARK    8  A    between atoms: _19  and  _39
REMARK    9  A    between atoms: _21  and  _27
REMARK   10  A    between atoms: _22  and  _26
REMARK   11  A    between atoms: _26  and  _27
REMARK   12  A    between atoms: _29  and  _30
REMARK   13  A    between atoms: _31  and  _32
REMARK   14  A    between atoms: _33  and  _35
REMARK   15  A    between atoms: _35  and  _36
REMARK   16  A    between atoms: _35  and  _37
REMARK   17  A    between atoms: _37  and  _38
REMARK   18  A    between atoms: _37  and  _39
REMARK   19  A    between atoms: _40  and  _42
REMARK                            x       y       z     vdW  Elec       q    Type
REMARK                         _______ _______ _______ _____ _____    ______ ____
ROOT
ATOM      1  C   UNL     1      -2.939  11.701  21.418  0.00  0.00    +0.141 C 
ENDROOT
BRANCH   1   4
ATOM      2  C   UNL     1      -4.586  11.383  19.604  0.00  0.00    +0.401 C 
ATOM      3  O   UNL     1      -4.484  10.154  19.598  0.00  0.00    -0.226 OA
ATOM      4  N   UNL     1      -3.897  12.185  20.417  0.00  0.00    -0.279 N 
ATOM      5  H   UNL     1      -4.043  13.182  20.339  0.00  0.00    +0.152 HD
BRANCH   2   6
ATOM      6  O   UNL     1      -5.489  12.009  18.688  0.00  0.00    -0.444 OA
BRANCH   6   7
ATOM      7  C   UNL     1      -5.881  11.068  17.685  0.00  0.00    +0.292 C 
BRANCH   7   9
ATOM      8  N   UNL     1      -6.396  11.682  15.350  0.00  0.00    -0.131 NA
ATOM      9  C   UNL     1      -5.477  11.546  16.352  0.00  0.00    +0.121 A 
ATOM     10  C   UNL     1      -4.247  11.967  15.901  0.00  0.00    +0.143 A 
ATOM     11  N   UNL     1      -4.467  12.360  14.604  0.00  0.00    -0.219 N 
ATOM     12  N   UNL     1      -5.778  12.203  14.300  0.00  0.00    -0.060 NA
BRANCH  11  13
ATOM     13  C   UNL     1      -3.578  12.947  13.678  0.00  0.00    +0.080 A 
ATOM     14  C   UNL     1      -2.764  12.219  12.796  0.00  0.00    +0.062 A 
ATOM     15  C   UNL     1      -1.748  12.923  12.108  0.00  0.00    +0.016 A 
ATOM     16  C   UNL     1      -1.562  14.300  12.269  0.00  0.00    +0.021 A 
ATOM     17  C   UNL     1      -2.423  15.012  13.089  0.00  0.00    +0.043 A 
ATOM     18 CL   UNL     1      -2.188  16.699  13.327  0.00  0.00    -0.083 Cl
ATOM     19  C   UNL     1      -3.442  14.351  13.770  0.00  0.00    +0.048 A 
BRANCH  14  20
ATOM     20  C   UNL     1      -2.764  10.750  12.526  0.00  0.00    +0.248 C 
ATOM     21  O   UNL     1      -1.865  10.117  13.086  0.00  0.00    -0.270 OA
ATOM     22  N   UNL     1      -3.658  10.117  11.656  0.00  0.00    -0.304 N 
ATOM     23  C   UNL     1      -4.841  10.683  11.023  0.00  0.00    +0.132 C 
ATOM     24  C   UNL     1      -3.503   8.673  11.505  0.00  0.00    +0.132 C 
ENDBRANCH  14  20
ENDBRANCH  11  13
ENDBRANCH   7   9
ENDBRANCH   6   7
ENDBRANCH   2   6
ENDBRANCH   1   4
BRANCH   1  25
ATOM     25  C   UNL     1      -3.537  11.695  22.821  0.00  0.00    +0.163 C 
BRANCH  25  26
ATOM     26  O   UNL     1      -4.593  12.666  22.910  0.00  0.00    -0.388 OA
ATOM     27  H   UNL     1      -4.332  13.467  22.449  0.00  0.00    +0.210 HD
ENDBRANCH  25  26
BRANCH  25  28
ATOM     28  C   UNL     1      -4.057  10.285  23.152  0.00  0.00    +0.175 C 
BRANCH  28  29
ATOM     29  C   UNL     1      -3.996   9.986  24.657  0.00  0.00    +0.176 C 
ATOM     30  O   UNL     1      -3.171   8.803  24.845  0.00  0.00    -0.332 OA
ATOM     31  C   UNL     1      -2.912   8.425  26.237  0.00  0.00    +0.277 C 
ATOM     32  C   UNL     1      -4.244   8.262  27.011  0.00  0.00    +0.110 C 
ATOM     33  C   UNL     1      -5.168   9.483  26.816  0.00  0.00    +0.143 C 
ATOM     34  C   UNL     1      -5.367   9.789  25.331  0.00  0.00    +0.133 C 
BRANCH  34  35
ATOM     35  N   UNL     1      -6.178  11.004  25.159  0.00  0.00    -0.308 N 
ATOM     36  H   UNL     1      -5.825  11.866  25.552  0.00  0.00    +0.149 HD
ATOM     37  C   UNL     1      -7.350  11.043  24.520  0.00  0.00    +0.210 C 
ATOM     38  C   UNL     1      -7.873   9.708  23.956  0.00  0.00    +0.109 C 
ATOM     39  O   UNL     1      -8.001  12.079  24.379  0.00  0.00    -0.276 OA
ENDBRANCH  34  35
BRANCH  31  40
ATOM     40  C   UNL     1      -2.035   9.484  26.937  0.00  0.00    +0.414 C 
ATOM     41  O   UNL     1      -1.059   9.961  26.360  0.00  0.00    -0.240 OA
ATOM     42  O   UNL     1      -2.304   9.861  28.078  0.00  0.00    -0.240 OA
ENDBRANCH  31  40
BRANCH  33  43
ATOM     43  O   UNL     1      -6.438   9.226  27.418  0.00  0.00    -0.390 OA
ATOM     44  H   UNL     1      -6.313   8.734  28.232  0.00  0.00    +0.210 HD
ENDBRANCH  33  43
BRANCH  31  45
ATOM     45  O   UNL     1      -2.226   7.147  26.235  0.00  0.00    -0.343 OA
ATOM     46  C   UNL     1      -2.353   6.381  27.460  0.00  0.00    +0.198 C 
ENDBRANCH  31  45
ENDBRANCH  28  29
BRANCH  28  47
ATOM     47  O   UNL     1      -3.309   9.295  22.418  0.00  0.00    -0.387 OA
ATOM     48  H   UNL     1      -3.907   8.617  22.094  0.00  0.00    +0.210 HD
ENDBRANCH  28  47
ENDBRANCH  25  28
ENDBRANCH   1  25
TORSDOF 15
