REMARK VINA RESULT:    -5.485      3.704      6.798
REMARK INTER + INTRA:         -12.635
REMARK INTER:                  -9.593
REMARK INTRA:                  -3.043
REMARK UNBOUND:                -3.141
REMARK  Name = lig_assembled_91.pdb
REMARK  16 active torsions:
REMARK  status: ('A' for Active; 'I' for Inactive)
REMARK    1  A    between atoms: _2  and  _10
REMARK    2  A    between atoms: _5  and  _26
REMARK    3  A    between atoms: _7  and  _8
REMARK    4  A    between atoms: _7  and  _26
REMARK    5  A    between atoms: _22  and  _42
REMARK    6  A    between atoms: _24  and  _30
REMARK    7  A    between atoms: _25  and  _29
REMARK    8  A    between atoms: _29  and  _30
REMARK    9  A    between atoms: _32  and  _33
REMARK   10  A    between atoms: _34  and  _35
REMARK   11  A    between atoms: _36  and  _38
REMARK   12  A    between atoms: _38  and  _39
REMARK   13  A    between atoms: _38  and  _40
REMARK   14  A    between atoms: _40  and  _41
REMARK   15  A    between atoms: _40  and  _42
REMARK   16  A    between atoms: _43  and  _45
REMARK                            x       y       z     vdW  Elec       q    Type
REMARK                         _______ _______ _______ _____ _____    ______ ____
ROOT
ATOM      1  C   UNL     1      -4.874  14.535  22.516  0.00  0.00    +0.401 C 
ATOM      2  O   UNL     1      -3.927  15.322  22.443  0.00  0.00    -0.226 OA
ATOM      3  N   UNL     1      -4.979  13.580  23.440  0.00  0.00    -0.279 N 
ATOM      4  H   UNL     1      -5.798  12.989  23.425  0.00  0.00    +0.152 HD
ENDROOT
BRANCH   3   5
ATOM      5  C   UNL     1      -3.970  13.337  24.479  0.00  0.00    +0.141 C 
BRANCH   5   6
ATOM      6  C   UNL     1      -2.995  12.235  24.079  0.00  0.00    +0.163 C 
BRANCH   6   7
ATOM      7  O   UNL     1      -2.085  11.967  25.159  0.00  0.00    -0.388 OA
ATOM      8  H   UNL     1      -1.182  12.056  24.846  0.00  0.00    +0.210 HD
ENDBRANCH   6   7
BRANCH   6   9
ATOM      9  C   UNL     1      -3.780  10.969  23.694  0.00  0.00    +0.175 C 
BRANCH   9  10
ATOM     10  C   UNL     1      -4.064  10.073  24.909  0.00  0.00    +0.176 C 
ATOM     11  O   UNL     1      -2.910   9.211  25.108  0.00  0.00    -0.332 OA
ATOM     12  C   UNL     1      -2.956   8.354  26.296  0.00  0.00    +0.277 C 
ATOM     13  C   UNL     1      -4.251   7.504  26.300  0.00  0.00    +0.110 C 
ATOM     14  C   UNL     1      -5.503   8.374  26.059  0.00  0.00    +0.143 C 
ATOM     15  C   UNL     1      -5.346   9.227  24.800  0.00  0.00    +0.133 C 
BRANCH  15  16
ATOM     16  N   UNL     1      -6.507  10.114  24.630  0.00  0.00    -0.308 N 
ATOM     17  H   UNL     1      -6.751  10.724  25.398  0.00  0.00    +0.149 HD
ATOM     18  C   UNL     1      -7.260  10.166  23.528  0.00  0.00    +0.210 C 
ATOM     19  C   UNL     1      -6.877   9.206  22.386  0.00  0.00    +0.109 C 
ATOM     20  O   UNL     1      -8.218  10.930  23.408  0.00  0.00    -0.276 OA
ENDBRANCH  15  16
BRANCH  12  21
ATOM     21  C   UNL     1      -2.892   9.200  27.585  0.00  0.00    +0.414 C 
ATOM     22  O   UNL     1      -3.494   8.838  28.595  0.00  0.00    -0.240 OA
ATOM     23  O   UNL     1      -2.237  10.243  27.614  0.00  0.00    -0.240 OA
ENDBRANCH  12  21
BRANCH  14  24
ATOM     24  O   UNL     1      -6.652   7.536  25.919  0.00  0.00    -0.390 OA
ATOM     25  H   UNL     1      -6.699   6.930  26.662  0.00  0.00    +0.210 HD
ENDBRANCH  14  24
BRANCH  12  26
ATOM     26  O   UNL     1      -1.819   7.454  26.245  0.00  0.00    -0.343 OA
ATOM     27  C   UNL     1      -2.077   6.113  26.733  0.00  0.00    +0.198 C 
ENDBRANCH  12  26
ENDBRANCH   9  10
BRANCH   9  28
ATOM     28  O   UNL     1      -3.063  10.227  22.687  0.00  0.00    -0.387 OA
ATOM     29  H   UNL     1      -2.122  10.267  22.869  0.00  0.00    +0.210 HD
ENDBRANCH   9  28
ENDBRANCH   6   9
ENDBRANCH   5   6
ENDBRANCH   3   5
BRANCH   1  30
ATOM     30  O   UNL     1      -5.937  14.638  21.566  0.00  0.00    -0.444 OA
BRANCH  30  31
ATOM     31  C   UNL     1      -6.722  13.443  21.596  0.00  0.00    +0.292 C 
BRANCH  31  33
ATOM     32  N   UNL     1      -7.608  12.691  19.417  0.00  0.00    -0.131 NA
ATOM     33  C   UNL     1      -6.592  12.706  20.323  0.00  0.00    +0.121 A 
ATOM     34  C   UNL     1      -5.539  11.976  19.823  0.00  0.00    +0.143 A 
ATOM     35  N   UNL     1      -5.973  11.485  18.608  0.00  0.00    -0.218 N 
ATOM     36  N   UNL     1      -7.226  11.956  18.383  0.00  0.00    -0.060 NA
BRANCH  35  37
ATOM     37  C   UNL     1      -5.306  10.624  17.682  0.00  0.00    +0.085 A 
ATOM     38  C   UNL     1      -5.332   9.196  17.874  0.00  0.00    +0.026 A 
ATOM     39  C   UNL     1      -4.623   8.441  16.919  0.00  0.00    +0.074 A 
ATOM     40  C   UNL     1      -4.574   7.057  17.000  0.00  0.00    +0.028 A 
ATOM     41  C   UNL     1      -5.218   6.349  18.009  0.00  0.00    +0.002 A 
ATOM     42  C   UNL     1      -5.954   7.045  18.947  0.00  0.00    +0.001 A 
ATOM     43  N   UNL     1      -3.982   8.973  15.881  0.00  0.00    -0.247 NA
ATOM     44  C   UNL     1      -3.984  10.291  15.691  0.00  0.00    +0.074 A 
ATOM     45  C   UNL     1      -3.281  10.739  14.577  0.00  0.00    +0.028 A 
ATOM     46  C   UNL     1      -3.162  12.089  14.267  0.00  0.00    +0.002 A 
ATOM     47  C   UNL     1      -3.751  13.021  15.098  0.00  0.00    +0.001 A 
ATOM     48  C   UNL     1      -4.456  12.588  16.226  0.00  0.00    +0.012 A 
ATOM     49  C   UNL     1      -6.029   8.440  18.869  0.00  0.00    +0.012 A 
ATOM     50  C   UNL     1      -4.616  11.202  16.553  0.00  0.00    +0.026 A 
ENDBRANCH  35  37
ENDBRANCH  31  33
ENDBRANCH  30  31
ENDBRANCH   1  30
TORSDOF 14
