REMARK VINA RESULT:    -4.539      4.872     10.195
REMARK INTER + INTRA:         -11.629
REMARK INTER:                  -7.845
REMARK INTRA:                  -3.784
REMARK UNBOUND:                -3.243
REMARK  Name = lig_assembled_78.pdb
REMARK  18 active torsions:
REMARK  status: ('A' for Active; 'I' for Inactive)
REMARK    1  A    between atoms: _2  and  _9
REMARK    2  A    between atoms: _4  and  _21
REMARK    3  A    between atoms: _6  and  _7
REMARK    4  A    between atoms: _6  and  _21
REMARK    5  A    between atoms: _9  and  _41
REMARK    6  A    between atoms: _10  and  _41
REMARK    7  A    between atoms: _17  and  _37
REMARK    8  A    between atoms: _19  and  _25
REMARK    9  A    between atoms: _20  and  _24
REMARK   10  A    between atoms: _24  and  _25
REMARK   11  A    between atoms: _27  and  _28
REMARK   12  A    between atoms: _29  and  _30
REMARK   13  A    between atoms: _31  and  _33
REMARK   14  A    between atoms: _33  and  _34
REMARK   15  A    between atoms: _33  and  _35
REMARK   16  A    between atoms: _35  and  _36
REMARK   17  A    between atoms: _35  and  _37
REMARK   18  A    between atoms: _38  and  _40
REMARK                            x       y       z     vdW  Elec       q    Type
REMARK                         _______ _______ _______ _____ _____    ______ ____
ROOT
ATOM      1  C   UNL     1      -2.425   9.776  27.017  0.00  0.00    +0.163 C 
ENDROOT
BRANCH   1   2
ATOM      2  O   UNL     1      -2.888   9.201  25.784  0.00  0.00    -0.388 OA
ATOM      3  H   UNL     1      -2.386   9.567  25.052  0.00  0.00    +0.210 HD
ENDBRANCH   1   2
BRANCH   1   4
ATOM      4  C   UNL     1      -3.515  10.652  27.658  0.00  0.00    +0.175 C 
BRANCH   4   5
ATOM      5  C   UNL     1      -4.383  11.357  26.606  0.00  0.00    +0.176 C 
ATOM      6  O   UNL     1      -3.497  11.921  25.600  0.00  0.00    -0.332 OA
ATOM      7  C   UNL     1      -4.158  12.547  24.451  0.00  0.00    +0.277 C 
ATOM      8  C   UNL     1      -5.163  13.625  24.927  0.00  0.00    +0.110 C 
ATOM      9  C   UNL     1      -6.106  13.081  26.020  0.00  0.00    +0.143 C 
ATOM     10  C   UNL     1      -5.314  12.450  27.165  0.00  0.00    +0.133 C 
BRANCH  10  11
ATOM     11  N   UNL     1      -6.224  11.859  28.158  0.00  0.00    -0.308 N 
ATOM     12  H   UNL     1      -6.762  11.049  27.882  0.00  0.00    +0.149 HD
ATOM     13  C   UNL     1      -6.388  12.323  29.400  0.00  0.00    +0.210 C 
ATOM     14  C   UNL     1      -5.574  13.574  29.781  0.00  0.00    +0.109 C 
ATOM     15  O   UNL     1      -7.147  11.798  30.215  0.00  0.00    -0.276 OA
ENDBRANCH  10  11
BRANCH   7  16
ATOM     16  C   UNL     1      -4.898  11.491  23.604  0.00  0.00    +0.414 C 
ATOM     17  O   UNL     1      -6.010  11.737  23.138  0.00  0.00    -0.240 OA
ATOM     18  O   UNL     1      -4.384  10.393  23.386  0.00  0.00    -0.240 OA
ENDBRANCH   7  16
BRANCH   7  19
ATOM     19  O   UNL     1      -3.140  13.194  23.645  0.00  0.00    -0.343 OA
ATOM     20  C   UNL     1      -3.616  14.287  22.819  0.00  0.00    +0.198 C 
ENDBRANCH   7  19
BRANCH   9  21
ATOM     21  O   UNL     1      -6.910  14.144  26.534  0.00  0.00    -0.390 OA
ATOM     22  H   UNL     1      -7.707  13.781  26.930  0.00  0.00    +0.210 HD
ENDBRANCH   9  21
ENDBRANCH   4   5
BRANCH   4  23
ATOM     23  O   UNL     1      -2.917  11.623  28.540  0.00  0.00    -0.387 OA
ATOM     24  H   UNL     1      -3.229  11.476  29.436  0.00  0.00    +0.210 HD
ENDBRANCH   4  23
ENDBRANCH   1   4
BRANCH   1  25
ATOM     25  C   UNL     1      -2.023   8.671  27.989  0.00  0.00    +0.141 C 
BRANCH  25  28
ATOM     26  C   UNL     1      -3.131   8.179  30.142  0.00  0.00    +0.401 C 
ATOM     27  O   UNL     1      -3.564   7.084  29.776  0.00  0.00    -0.226 OA
ATOM     28  N   UNL     1      -2.406   8.990  29.370  0.00  0.00    -0.279 N 
ATOM     29  H   UNL     1      -2.104   9.873  29.756  0.00  0.00    +0.152 HD
BRANCH  26  30
ATOM     30  O   UNL     1      -3.414   8.630  31.469  0.00  0.00    -0.444 OA
BRANCH  30  31
ATOM     31  C   UNL     1      -4.317   9.738  31.415  0.00  0.00    +0.292 C 
BRANCH  31  33
ATOM     32  N   UNL     1      -2.365  11.232  31.728  0.00  0.00    -0.131 NA
ATOM     33  C   UNL     1      -3.681  10.945  31.974  0.00  0.00    +0.120 A 
ATOM     34  C   UNL     1      -4.214  11.934  32.771  0.00  0.00    +0.139 A 
ATOM     35  N   UNL     1      -3.191  12.821  32.924  0.00  0.00    -0.230 N 
ATOM     36  N   UNL     1      -2.068  12.374  32.335  0.00  0.00    -0.064 NA
BRANCH  35  37
ATOM     37  C   UNL     1      -3.170  14.055  33.669  0.00  0.00    +0.316 C 
BRANCH  37  38
ATOM     38  S   UNL     1      -3.346  15.500  32.655  0.00  0.00    +0.017 S 
ATOM     39  O   UNL     1      -2.760  16.645  33.321  0.00  0.00    -0.168 OA
ATOM     40  O   UNL     1      -2.957  15.145  31.301  0.00  0.00    -0.168 OA
BRANCH  38  41
ATOM     41  C   UNL     1      -5.101  15.800  32.627  0.00  0.00    +0.090 A 
ATOM     42  C   UNL     1      -5.928  15.097  33.510  0.00  0.00    +0.027 A 
ATOM     43  C   UNL     1      -7.299  15.347  33.509  0.00  0.00    +0.002 A 
ATOM     44  C   UNL     1      -7.835  16.306  32.647  0.00  0.00    +0.000 A 
ATOM     45  C   UNL     1      -7.003  17.018  31.783  0.00  0.00    +0.002 A 
ATOM     46  C   UNL     1      -5.630  16.768  31.769  0.00  0.00    +0.027 A 
ENDBRANCH  38  41
ENDBRANCH  37  38
ENDBRANCH  35  37
ENDBRANCH  31  33
ENDBRANCH  30  31
ENDBRANCH  26  30
ENDBRANCH  25  28
ENDBRANCH   1  25
TORSDOF 16
