REMARK VINA RESULT:    -5.225      0.000      0.000
REMARK INTER + INTRA:         -12.192
REMARK INTER:                 -10.415
REMARK INTRA:                  -1.777
REMARK UNBOUND:                -2.844
REMARK  Name = lig_assembled_44.pdb
REMARK  17 active torsions:
REMARK  status: ('A' for Active; 'I' for Inactive)
REMARK    1  A    between atoms: _2  and  _9
REMARK    2  A    between atoms: _4  and  _19
REMARK    3  A    between atoms: _6  and  _7
REMARK    4  A    between atoms: _6  and  _19
REMARK    5  A    between atoms: _9  and  _10
REMARK    6  A    between atoms: _15  and  _35
REMARK    7  A    between atoms: _17  and  _23
REMARK    8  A    between atoms: _18  and  _22
REMARK    9  A    between atoms: _22  and  _23
REMARK   10  A    between atoms: _25  and  _26
REMARK   11  A    between atoms: _27  and  _28
REMARK   12  A    between atoms: _29  and  _31
REMARK   13  A    between atoms: _31  and  _32
REMARK   14  A    between atoms: _31  and  _33
REMARK   15  A    between atoms: _33  and  _34
REMARK   16  A    between atoms: _33  and  _35
REMARK   17  A    between atoms: _36  and  _38
REMARK                            x       y       z     vdW  Elec       q    Type
REMARK                         _______ _______ _______ _____ _____    ______ ____
ROOT
ATOM      1  C   UNL     1      -3.540  11.230  21.605  0.00  0.00    +0.163 C 
ENDROOT
BRANCH   1   2
ATOM      2  O   UNL     1      -2.987  12.216  22.493  0.00  0.00    -0.388 OA
ATOM      3  H   UNL     1      -3.699  12.685  22.934  0.00  0.00    +0.210 HD
ENDBRANCH   1   2
BRANCH   1   4
ATOM      4  C   UNL     1      -4.645  11.852  20.759  0.00  0.00    +0.141 C 
BRANCH   4   7
ATOM      5  C   UNL     1      -4.759  10.584  18.641  0.00  0.00    +0.401 C 
ATOM      6  O   UNL     1      -5.321   9.609  19.146  0.00  0.00    -0.226 OA
ATOM      7  N   UNL     1      -4.402  11.674  19.322  0.00  0.00    -0.279 N 
ATOM      8  H   UNL     1      -3.937  12.418  18.821  0.00  0.00    +0.152 HD
BRANCH   5   9
ATOM      9  O   UNL     1      -4.460  10.566  17.243  0.00  0.00    -0.444 OA
BRANCH   9  10
ATOM     10  C   UNL     1      -4.538  11.895  16.721  0.00  0.00    +0.292 C 
BRANCH  10  12
ATOM     11  N   UNL     1      -2.903  11.060  15.055  0.00  0.00    -0.131 NA
ATOM     12  C   UNL     1      -3.857  11.975  15.415  0.00  0.00    +0.120 A 
ATOM     13  C   UNL     1      -4.029  12.874  14.387  0.00  0.00    +0.137 A 
ATOM     14  N   UNL     1      -3.209  12.406  13.402  0.00  0.00    -0.247 N 
ATOM     15  N   UNL     1      -2.503  11.340  13.822  0.00  0.00    -0.065 NA
BRANCH  14  16
ATOM     16  C   UNL     1      -3.046  12.913  12.054  0.00  0.00    +0.180 C 
BRANCH  16  17
ATOM     17  C   UNL     1      -1.786  13.735  11.920  0.00  0.00    -0.026 A 
ATOM     18  C   UNL     1      -0.693  13.255  11.182  0.00  0.00    +0.006 A 
ATOM     19  C   UNL     1       0.477  14.009  11.074  0.00  0.00    +0.015 A 
ATOM     20  C   UNL     1       0.560  15.250  11.703  0.00  0.00    +0.018 A 
ATOM     21 BR   UNL     1       2.138  16.278  11.541  0.00  0.00    -0.050 Br
ATOM     22  C   UNL     1      -0.510  15.737  12.450  0.00  0.00    +0.015 A 
ATOM     23  C   UNL     1      -1.679  14.979  12.563  0.00  0.00    +0.006 A 
ENDBRANCH  16  17
ENDBRANCH  14  16
ENDBRANCH  10  12
ENDBRANCH   9  10
ENDBRANCH   5   9
ENDBRANCH   4   7
ENDBRANCH   1   4
BRANCH   1  24
ATOM     24  C   UNL     1      -4.105  10.036  22.393  0.00  0.00    +0.175 C 
BRANCH  24  25
ATOM     25  C   UNL     1      -4.195  10.327  23.898  0.00  0.00    +0.176 C 
ATOM     26  O   UNL     1      -2.977   9.837  24.522  0.00  0.00    -0.332 OA
ATOM     27  C   UNL     1      -2.837  10.124  25.953  0.00  0.00    +0.277 C 
ATOM     28  C   UNL     1      -4.070   9.603  26.732  0.00  0.00    +0.110 C 
ATOM     29  C   UNL     1      -5.391  10.073  26.087  0.00  0.00    +0.143 C 
ATOM     30  C   UNL     1      -5.428   9.726  24.598  0.00  0.00    +0.133 C 
BRANCH  30  31
ATOM     31  N   UNL     1      -6.653  10.255  23.976  0.00  0.00    -0.308 N 
ATOM     32  H   UNL     1      -6.818  11.250  24.033  0.00  0.00    +0.149 HD
ATOM     33  C   UNL     1      -7.559   9.506  23.342  0.00  0.00    +0.210 C 
ATOM     34  C   UNL     1      -7.290   7.990  23.296  0.00  0.00    +0.109 C 
ATOM     35  O   UNL     1      -8.568   9.979  22.818  0.00  0.00    -0.276 OA
ENDBRANCH  30  31
BRANCH  27  36
ATOM     36  C   UNL     1      -2.678  11.639  26.194  0.00  0.00    +0.414 C 
ATOM     37  O   UNL     1      -2.108  12.343  25.360  0.00  0.00    -0.240 OA
ATOM     38  O   UNL     1      -3.118  12.158  27.221  0.00  0.00    -0.240 OA
ENDBRANCH  27  36
BRANCH  27  39
ATOM     39  O   UNL     1      -1.662   9.426  26.438  0.00  0.00    -0.343 OA
ATOM     40  C   UNL     1      -1.578   9.296  27.880  0.00  0.00    +0.198 C 
ENDBRANCH  27  39
BRANCH  29  41
ATOM     41  O   UNL     1      -6.496   9.449  26.743  0.00  0.00    -0.390 OA
ATOM     42  H   UNL     1      -7.133  10.118  27.004  0.00  0.00    +0.210 HD
ENDBRANCH  29  41
ENDBRANCH  24  25
BRANCH  24  43
ATOM     43  O   UNL     1      -3.301   8.862  22.161  0.00  0.00    -0.387 OA
ATOM     44  H   UNL     1      -3.187   8.384  22.986  0.00  0.00    +0.210 HD
ENDBRANCH  24  43
ENDBRANCH   1  24
TORSDOF 15
