REMARK VINA RESULT:    -4.867      2.682      3.482
REMARK INTER + INTRA:         -12.235
REMARK INTER:                  -9.898
REMARK INTRA:                  -2.337
REMARK UNBOUND:                -3.243
REMARK  Name = lig_assembled_78.pdb
REMARK  18 active torsions:
REMARK  status: ('A' for Active; 'I' for Inactive)
REMARK    1  A    between atoms: _2  and  _9
REMARK    2  A    between atoms: _4  and  _21
REMARK    3  A    between atoms: _6  and  _7
REMARK    4  A    between atoms: _6  and  _21
REMARK    5  A    between atoms: _9  and  _41
REMARK    6  A    between atoms: _10  and  _41
REMARK    7  A    between atoms: _17  and  _37
REMARK    8  A    between atoms: _19  and  _25
REMARK    9  A    between atoms: _20  and  _24
REMARK   10  A    between atoms: _24  and  _25
REMARK   11  A    between atoms: _27  and  _28
REMARK   12  A    between atoms: _29  and  _30
REMARK   13  A    between atoms: _31  and  _33
REMARK   14  A    between atoms: _33  and  _34
REMARK   15  A    between atoms: _33  and  _35
REMARK   16  A    between atoms: _35  and  _36
REMARK   17  A    between atoms: _35  and  _37
REMARK   18  A    between atoms: _38  and  _40
REMARK                            x       y       z     vdW  Elec       q    Type
REMARK                         _______ _______ _______ _____ _____    ______ ____
ROOT
ATOM      1  C   UNL     1      -3.360  12.609  24.073  0.00  0.00    +0.163 C 
ENDROOT
BRANCH   1   2
ATOM      2  O   UNL     1      -1.970  12.786  24.394  0.00  0.00    -0.388 OA
ATOM      3  H   UNL     1      -1.855  12.758  25.347  0.00  0.00    +0.210 HD
ENDBRANCH   1   2
BRANCH   1   4
ATOM      4  C   UNL     1      -4.231  12.697  25.338  0.00  0.00    +0.175 C 
BRANCH   4   5
ATOM      5  C   UNL     1      -3.957  11.541  26.311  0.00  0.00    +0.176 C 
ATOM      6  O   UNL     1      -3.745  10.336  25.526  0.00  0.00    -0.332 OA
ATOM      7  C   UNL     1      -3.362   9.143  26.286  0.00  0.00    +0.277 C 
ATOM      8  C   UNL     1      -4.393   8.862  27.407  0.00  0.00    +0.110 C 
ATOM      9  C   UNL     1      -4.675  10.124  28.250  0.00  0.00    +0.143 C 
ATOM     10  C   UNL     1      -5.060  11.305  27.359  0.00  0.00    +0.133 C 
BRANCH  10  11
ATOM     11  N   UNL     1      -5.241  12.522  28.166  0.00  0.00    -0.308 N 
ATOM     12  H   UNL     1      -4.420  12.941  28.578  0.00  0.00    +0.149 HD
ATOM     13  C   UNL     1      -6.420  13.109  28.388  0.00  0.00    +0.210 C 
ATOM     14  C   UNL     1      -7.656  12.432  27.767  0.00  0.00    +0.109 C 
ATOM     15  O   UNL     1      -6.540  14.137  29.056  0.00  0.00    -0.276 OA
ENDBRANCH  10  11
BRANCH   7  16
ATOM     16  C   UNL     1      -1.960   9.315  26.906  0.00  0.00    +0.414 C 
ATOM     17  O   UNL     1      -1.073   9.894  26.281  0.00  0.00    -0.240 OA
ATOM     18  O   UNL     1      -1.717   8.876  28.031  0.00  0.00    -0.240 OA
ENDBRANCH   7  16
BRANCH   7  19
ATOM     19  O   UNL     1      -3.358   8.013  25.376  0.00  0.00    -0.343 OA
ATOM     20  C   UNL     1      -3.848   6.770  25.940  0.00  0.00    +0.198 C 
ENDBRANCH   7  19
BRANCH   9  21
ATOM     21  O   UNL     1      -5.736   9.862  29.170  0.00  0.00    -0.390 OA
ATOM     22  H   UNL     1      -5.809  10.590  29.791  0.00  0.00    +0.210 HD
ENDBRANCH   9  21
ENDBRANCH   4   5
BRANCH   4  23
ATOM     23  O   UNL     1      -5.627  12.723  24.979  0.00  0.00    -0.387 OA
ATOM     24  H   UNL     1      -5.712  12.721  24.022  0.00  0.00    +0.210 HD
ENDBRANCH   4  23
ENDBRANCH   1   4
BRANCH   1  25
ATOM     25  C   UNL     1      -3.804  13.671  23.073  0.00  0.00    +0.141 C 
BRANCH  25  28
ATOM     26  C   UNL     1      -5.705  13.202  21.566  0.00  0.00    +0.401 C 
ATOM     27  O   UNL     1      -6.523  13.820  22.251  0.00  0.00    -0.226 OA
ATOM     28  N   UNL     1      -4.415  13.076  21.878  0.00  0.00    -0.279 N 
ATOM     29  H   UNL     1      -3.824  12.541  21.257  0.00  0.00    +0.152 HD
BRANCH  26  30
ATOM     30  O   UNL     1      -6.145  12.570  20.361  0.00  0.00    -0.444 OA
BRANCH  30  31
ATOM     31  C   UNL     1      -5.188  11.586  19.961  0.00  0.00    +0.292 C 
BRANCH  31  33
ATOM     32  N   UNL     1      -5.849  12.240  17.663  0.00  0.00    -0.131 NA
ATOM     33  C   UNL     1      -5.302  11.318  18.515  0.00  0.00    +0.120 A 
ATOM     34  C   UNL     1      -4.924  10.209  17.791  0.00  0.00    +0.139 A 
ATOM     35  N   UNL     1      -5.211  10.544  16.502  0.00  0.00    -0.230 N 
ATOM     36  N   UNL     1      -5.810  11.746  16.433  0.00  0.00    -0.064 NA
BRANCH  35  37
ATOM     37  C   UNL     1      -5.029   9.761  15.305  0.00  0.00    +0.316 C 
BRANCH  37  38
ATOM     38  S   UNL     1      -3.378   9.826  14.658  0.00  0.00    +0.017 S 
ATOM     39  O   UNL     1      -3.400   9.625  13.224  0.00  0.00    -0.168 OA
ATOM     40  O   UNL     1      -2.716  10.982  15.239  0.00  0.00    -0.168 OA
BRANCH  38  41
ATOM     41  C   UNL     1      -2.588   8.382  15.339  0.00  0.00    +0.090 A 
ATOM     42  C   UNL     1      -1.195   8.269  15.271  0.00  0.00    +0.027 A 
ATOM     43  C   UNL     1      -0.572   7.152  15.825  0.00  0.00    +0.002 A 
ATOM     44  C   UNL     1      -1.333   6.168  16.457  0.00  0.00    +0.000 A 
ATOM     45  C   UNL     1      -2.720   6.296  16.539  0.00  0.00    +0.002 A 
ATOM     46  C   UNL     1      -3.355   7.405  15.979  0.00  0.00    +0.027 A 
ENDBRANCH  38  41
ENDBRANCH  37  38
ENDBRANCH  35  37
ENDBRANCH  31  33
ENDBRANCH  30  31
ENDBRANCH  26  30
ENDBRANCH  25  28
ENDBRANCH   1  25
TORSDOF 16
