REMARK VINA RESULT:    -4.534      1.962      2.692
REMARK INTER + INTRA:         -11.902
REMARK INTER:                  -9.686
REMARK INTRA:                  -2.215
REMARK UNBOUND:                -3.657
REMARK  Name = lig_assembled_88.pdb
REMARK  18 active torsions:
REMARK  status: ('A' for Active; 'I' for Inactive)
REMARK    1  A    between atoms: _2  and  _9
REMARK    2  A    between atoms: _4  and  _20
REMARK    3  A    between atoms: _5  and  _15
REMARK    4  A    between atoms: _6  and  _7
REMARK    5  A    between atoms: _6  and  _20
REMARK    6  A    between atoms: _9  and  _10
REMARK    7  A    between atoms: _16  and  _36
REMARK    8  A    between atoms: _18  and  _24
REMARK    9  A    between atoms: _19  and  _23
REMARK   10  A    between atoms: _23  and  _24
REMARK   11  A    between atoms: _26  and  _27
REMARK   12  A    between atoms: _28  and  _29
REMARK   13  A    between atoms: _30  and  _32
REMARK   14  A    between atoms: _32  and  _33
REMARK   15  A    between atoms: _32  and  _34
REMARK   16  A    between atoms: _34  and  _35
REMARK   17  A    between atoms: _34  and  _36
REMARK   18  A    between atoms: _37  and  _39
REMARK                            x       y       z     vdW  Elec       q    Type
REMARK                         _______ _______ _______ _____ _____    ______ ____
ROOT
ATOM      1  C   UNL     1      -4.377  12.140  27.071  0.00  0.00    +0.163 C 
ENDROOT
BRANCH   1   2
ATOM      2  O   UNL     1      -5.308  11.511  26.174  0.00  0.00    -0.388 OA
ATOM      3  H   UNL     1      -5.735  10.776  26.620  0.00  0.00    +0.210 HD
ENDBRANCH   1   2
BRANCH   1   4
ATOM      4  C   UNL     1      -4.347  11.418  28.429  0.00  0.00    +0.175 C 
BRANCH   4   5
ATOM      5  C   UNL     1      -3.685  10.036  28.334  0.00  0.00    +0.176 C 
ATOM      6  O   UNL     1      -4.567   9.168  27.569  0.00  0.00    -0.332 OA
ATOM      7  C   UNL     1      -4.048   7.828  27.284  0.00  0.00    +0.277 C 
ATOM      8  C   UNL     1      -3.626   7.121  28.596  0.00  0.00    +0.110 C 
ATOM      9  C   UNL     1      -2.712   8.017  29.458  0.00  0.00    +0.143 C 
ATOM     10  C   UNL     1      -3.349   9.388  29.690  0.00  0.00    +0.133 C 
BRANCH  10  11
ATOM     11  N   UNL     1      -2.432  10.262  30.438  0.00  0.00    -0.308 N 
ATOM     12  H   UNL     1      -1.537  10.474  30.020  0.00  0.00    +0.149 HD
ATOM     13  C   UNL     1      -2.704  10.792  31.633  0.00  0.00    +0.210 C 
ATOM     14  C   UNL     1      -4.066  10.427  32.255  0.00  0.00    +0.109 C 
ATOM     15  O   UNL     1      -1.922  11.533  32.230  0.00  0.00    -0.276 OA
ENDBRANCH  10  11
BRANCH   7  16
ATOM     16  C   UNL     1      -2.840   7.901  26.327  0.00  0.00    +0.414 C 
ATOM     17  O   UNL     1      -2.889   8.605  25.319  0.00  0.00    -0.240 OA
ATOM     18  O   UNL     1      -1.816   7.258  26.563  0.00  0.00    -0.240 OA
ENDBRANCH   7  16
BRANCH   7  19
ATOM     19  O   UNL     1      -5.111   7.055  26.670  0.00  0.00    -0.343 OA
ATOM     20  C   UNL     1      -6.412   7.695  26.673  0.00  0.00    +0.198 C 
ENDBRANCH   7  19
BRANCH   9  21
ATOM     21  O   UNL     1      -2.473   7.390  30.718  0.00  0.00    -0.390 OA
ATOM     22  H   UNL     1      -2.584   8.033  31.423  0.00  0.00    +0.210 HD
ENDBRANCH   9  21
ENDBRANCH   4   5
BRANCH   4  23
ATOM     23  O   UNL     1      -5.684  11.293  28.954  0.00  0.00    -0.387 OA
ATOM     24  H   UNL     1      -6.266  10.951  28.271  0.00  0.00    +0.210 HD
ENDBRANCH   4  23
ENDBRANCH   1   4
BRANCH   1  25
ATOM     25  C   UNL     1      -2.979  12.134  26.460  0.00  0.00    +0.141 C 
BRANCH  25  28
ATOM     26  C   UNL     1      -2.947  12.140  23.989  0.00  0.00    +0.401 C 
ATOM     27  O   UNL     1      -2.965  13.370  23.898  0.00  0.00    -0.226 OA
ATOM     28  N   UNL     1      -2.959  11.478  25.147  0.00  0.00    -0.279 N 
ATOM     29  H   UNL     1      -2.953  10.468  25.119  0.00  0.00    +0.152 HD
BRANCH  26  30
ATOM     30  O   UNL     1      -2.918  11.356  22.794  0.00  0.00    -0.444 OA
BRANCH  30  31
ATOM     31  C   UNL     1      -3.399  12.137  21.697  0.00  0.00    +0.292 C 
BRANCH  31  33
ATOM     32  N   UNL     1      -4.221   9.933  20.925  0.00  0.00    -0.131 NA
ATOM     33  C   UNL     1      -4.116  11.285  20.730  0.00  0.00    +0.120 A 
ATOM     34  C   UNL     1      -4.743  11.620  19.551  0.00  0.00    +0.137 A 
ATOM     35  N   UNL     1      -5.142  10.419  19.041  0.00  0.00    -0.247 N 
ATOM     36  N   UNL     1      -4.871   9.413  19.893  0.00  0.00    -0.065 NA
BRANCH  35  37
ATOM     37  C   UNL     1      -5.715  10.145  17.732  0.00  0.00    +0.184 C 
BRANCH  37  38
ATOM     38  C   UNL     1      -4.748  10.399  16.592  0.00  0.00    +0.017 A 
ATOM     39  C   UNL     1      -3.858   9.413  16.123  0.00  0.00    +0.024 A 
ATOM     40  C   UNL     1      -2.980   9.683  15.069  0.00  0.00    +0.019 A 
ATOM     41 BR   UNL     1      -1.765   8.350  14.500  0.00  0.00    -0.050 Br
ATOM     42  C   UNL     1      -2.986  10.921  14.436  0.00  0.00    +0.034 A 
ATOM     43  C   UNL     1      -3.893  11.890  14.857  0.00  0.00    +0.061 A 
ATOM     44 BR   UNL     1      -3.924  13.563  13.967  0.00  0.00    -0.046 Br
ATOM     45  C   UNL     1      -4.768  11.629  15.921  0.00  0.00    +0.136 A 
BRANCH  45  46
ATOM     46  O   UNL     1      -5.675  12.570  16.333  0.00  0.00    -0.505 OA
ATOM     47  H   UNL     1      -6.181  12.855  15.549  0.00  0.00    +0.292 HD
ENDBRANCH  45  46
ENDBRANCH  37  38
ENDBRANCH  35  37
ENDBRANCH  31  33
ENDBRANCH  30  31
ENDBRANCH  26  30
ENDBRANCH  25  28
ENDBRANCH   1  25
TORSDOF 16
