REMARK VINA RESULT:    -4.264      2.196      8.256
REMARK INTER + INTRA:         -11.475
REMARK INTER:                  -9.044
REMARK INTRA:                  -2.431
REMARK UNBOUND:                -3.721
REMARK  Name = lig_assembled_35.pdb
REMARK  19 active torsions:
REMARK  status: ('A' for Active; 'I' for Inactive)
REMARK    1  A    between atoms: _2  and  _9
REMARK    2  A    between atoms: _4  and  _17
REMARK    3  A    between atoms: _5  and  _9
REMARK    4  A    between atoms: _5  and  _11
REMARK    5  A    between atoms: _6  and  _7
REMARK    6  A    between atoms: _6  and  _17
REMARK    7  A    between atoms: _9  and  _10
REMARK    8  A    between atoms: _13  and  _33
REMARK    9  A    between atoms: _15  and  _21
REMARK   10  A    between atoms: _16  and  _20
REMARK   11  A    between atoms: _20  and  _21
REMARK   12  A    between atoms: _23  and  _24
REMARK   13  A    between atoms: _25  and  _26
REMARK   14  A    between atoms: _27  and  _29
REMARK   15  A    between atoms: _29  and  _30
REMARK   16  A    between atoms: _29  and  _31
REMARK   17  A    between atoms: _31  and  _32
REMARK   18  A    between atoms: _31  and  _33
REMARK   19  A    between atoms: _34  and  _36
REMARK                            x       y       z     vdW  Elec       q    Type
REMARK                         _______ _______ _______ _____ _____    ______ ____
ROOT
ATOM      1  C   UNL     1      -4.150   8.879  23.763  0.00  0.00    +0.163 C 
ENDROOT
BRANCH   1   2
ATOM      2  O   UNL     1      -3.640   8.047  22.708  0.00  0.00    -0.388 OA
ATOM      3  H   UNL     1      -3.614   7.134  23.004  0.00  0.00    +0.210 HD
ENDBRANCH   1   2
BRANCH   1   4
ATOM      4  C   UNL     1      -5.504   9.495  23.371  0.00  0.00    +0.175 C 
BRANCH   4   5
ATOM      5  C   UNL     1      -5.342  10.689  22.419  0.00  0.00    +0.176 C 
ATOM      6  O   UNL     1      -4.935  10.174  21.122  0.00  0.00    -0.332 OA
ATOM      7  C   UNL     1      -4.832  11.168  20.049  0.00  0.00    +0.277 C 
ATOM      8  C   UNL     1      -3.895  12.326  20.471  0.00  0.00    +0.110 C 
ATOM      9  C   UNL     1      -4.270  12.885  21.860  0.00  0.00    +0.143 C 
ATOM     10  C   UNL     1      -4.351  11.766  22.898  0.00  0.00    +0.133 C 
BRANCH  10  11
ATOM     11  N   UNL     1      -4.793  12.299  24.197  0.00  0.00    -0.308 N 
ATOM     12  H   UNL     1      -5.760  12.581  24.286  0.00  0.00    +0.149 HD
ATOM     13  C   UNL     1      -4.002  12.434  25.264  0.00  0.00    +0.210 C 
ATOM     14  C   UNL     1      -2.529  12.020  25.087  0.00  0.00    +0.109 C 
ATOM     15  O   UNL     1      -4.404  12.870  26.343  0.00  0.00    -0.276 OA
ENDBRANCH  10  11
BRANCH   7  16
ATOM     16  C   UNL     1      -6.223  11.735  19.694  0.00  0.00    +0.414 C 
ATOM     17  O   UNL     1      -7.229  11.307  20.258  0.00  0.00    -0.240 OA
ATOM     18  O   UNL     1      -6.338  12.619  18.845  0.00  0.00    -0.240 OA
ENDBRANCH   7  16
BRANCH   7  19
ATOM     19  O   UNL     1      -4.259  10.516  18.886  0.00  0.00    -0.343 OA
ATOM     20  C   UNL     1      -5.029   9.402  18.368  0.00  0.00    +0.198 C 
ENDBRANCH   7  19
BRANCH   9  21
ATOM     21  O   UNL     1      -3.293  13.841  22.274  0.00  0.00    -0.390 OA
ATOM     22  H   UNL     1      -3.586  14.723  22.034  0.00  0.00    +0.210 HD
ENDBRANCH   9  21
ENDBRANCH   4   5
BRANCH   4  23
ATOM     23  O   UNL     1      -6.227   9.896  24.552  0.00  0.00    -0.387 OA
ATOM     24  H   UNL     1      -7.010  10.390  24.297  0.00  0.00    +0.210 HD
ENDBRANCH   4  23
ENDBRANCH   1   4
BRANCH   1  25
ATOM     25  C   UNL     1      -4.313   8.061  25.040  0.00  0.00    +0.141 C 
BRANCH  25  28
ATOM     26  C   UNL     1      -2.657   8.777  26.729  0.00  0.00    +0.401 C 
ATOM     27  O   UNL     1      -1.741   8.101  26.254  0.00  0.00    -0.226 OA
ATOM     28  N   UNL     1      -3.892   8.814  26.229  0.00  0.00    -0.279 N 
ATOM     29  H   UNL     1      -4.578   9.391  26.694  0.00  0.00    +0.152 HD
BRANCH  26  30
ATOM     30  O   UNL     1      -2.402   9.575  27.888  0.00  0.00    -0.444 OA
BRANCH  30  31
ATOM     31  C   UNL     1      -3.635  10.107  28.381  0.00  0.00    +0.292 C 
BRANCH  31  33
ATOM     32  N   UNL     1      -2.619  10.154  30.638  0.00  0.00    -0.131 NA
ATOM     33  C   UNL     1      -3.428  10.737  29.700  0.00  0.00    +0.120 A 
ATOM     34  C   UNL     1      -3.945  11.905  30.215  0.00  0.00    +0.138 A 
ATOM     35  N   UNL     1      -3.400  11.984  31.463  0.00  0.00    -0.238 N 
ATOM     36  N   UNL     1      -2.622  10.918  31.720  0.00  0.00    -0.065 NA
BRANCH  35  37
ATOM     37  C   UNL     1      -3.575  12.995  32.488  0.00  0.00    +0.214 C 
ATOM     38  C   UNL     1      -3.705  12.358  33.868  0.00  0.00    +0.045 C 
BRANCH  37  39
ATOM     39  C   UNL     1      -2.470  14.031  32.439  0.00  0.00    +0.329 C 
ATOM     40  O   UNL     1      -2.552  15.152  32.922  0.00  0.00    -0.249 OA
BRANCH  39  41
ATOM     41  O   UNL     1      -1.356  13.630  31.779  0.00  0.00    -0.479 OA
ATOM     42  H   UNL     1      -1.226  12.662  31.712  0.00  0.00    +0.295 HD
ENDBRANCH  39  41
ENDBRANCH  37  39
ENDBRANCH  35  37
ENDBRANCH  31  33
ENDBRANCH  30  31
ENDBRANCH  26  30
ENDBRANCH  25  28
ENDBRANCH   1  25
TORSDOF 16
