REMARK VINA RESULT:    -4.223      2.820      5.166
REMARK INTER + INTRA:         -10.804
REMARK INTER:                  -7.966
REMARK INTRA:                  -2.838
REMARK UNBOUND:                -2.754
REMARK  Name = lig_assembled_19.pdb
REMARK  20 active torsions:
REMARK  status: ('A' for Active; 'I' for Inactive)
REMARK    1  A    between atoms: _2  and  _9
REMARK    2  A    between atoms: _4  and  _18
REMARK    3  A    between atoms: _5  and  _11
REMARK    4  A    between atoms: _6  and  _7
REMARK    5  A    between atoms: _6  and  _18
REMARK    6  A    between atoms: _9  and  _10
REMARK    7  A    between atoms: _10  and  _13
REMARK    8  A    between atoms: _11  and  _13
REMARK    9  A    between atoms: _14  and  _34
REMARK   10  A    between atoms: _16  and  _22
REMARK   11  A    between atoms: _17  and  _21
REMARK   12  A    between atoms: _21  and  _22
REMARK   13  A    between atoms: _24  and  _25
REMARK   14  A    between atoms: _26  and  _27
REMARK   15  A    between atoms: _28  and  _30
REMARK   16  A    between atoms: _30  and  _31
REMARK   17  A    between atoms: _30  and  _32
REMARK   18  A    between atoms: _32  and  _33
REMARK   19  A    between atoms: _32  and  _34
REMARK   20  A    between atoms: _35  and  _37
REMARK                            x       y       z     vdW  Elec       q    Type
REMARK                         _______ _______ _______ _____ _____    ______ ____
ROOT
ATOM      1  C   UNL     1      -4.026  11.900  26.117  0.00  0.00    +0.163 C 
ENDROOT
BRANCH   1   2
ATOM      2  O   UNL     1      -4.726  13.148  25.991  0.00  0.00    -0.388 OA
ATOM      3  H   UNL     1      -5.247  13.304  26.782  0.00  0.00    +0.210 HD
ENDBRANCH   1   2
BRANCH   1   4
ATOM      4  C   UNL     1      -3.001  11.727  24.983  0.00  0.00    +0.175 C 
BRANCH   4   5
ATOM      5  C   UNL     1      -3.668  11.339  23.655  0.00  0.00    +0.176 C 
ATOM      6  O   UNL     1      -4.349  12.514  23.137  0.00  0.00    -0.332 OA
ATOM      7  C   UNL     1      -4.960  12.359  21.813  0.00  0.00    +0.277 C 
ATOM      8  C   UNL     1      -5.923  11.147  21.799  0.00  0.00    +0.110 C 
ATOM      9  C   UNL     1      -5.252   9.881  22.371  0.00  0.00    +0.143 C 
ATOM     10  C   UNL     1      -4.648  10.155  23.749  0.00  0.00    +0.133 C 
BRANCH  10  11
ATOM     11  N   UNL     1      -3.937   8.966  24.246  0.00  0.00    -0.308 N 
ATOM     12  H   UNL     1      -3.086   8.693  23.773  0.00  0.00    +0.149 HD
ATOM     13  C   UNL     1      -4.342   8.224  25.280  0.00  0.00    +0.210 C 
ATOM     14  C   UNL     1      -5.656   8.650  25.962  0.00  0.00    +0.109 C 
ATOM     15  O   UNL     1      -3.719   7.241  25.683  0.00  0.00    -0.276 OA
ENDBRANCH  10  11
BRANCH   7  16
ATOM     16  C   UNL     1      -3.877  12.171  20.730  0.00  0.00    +0.414 C 
ATOM     17  O   UNL     1      -4.012  11.309  19.862  0.00  0.00    -0.240 OA
ATOM     18  O   UNL     1      -2.870  12.880  20.723  0.00  0.00    -0.240 OA
ENDBRANCH   7  16
BRANCH   9  19
ATOM     19  O   UNL     1      -6.216   8.832  22.480  0.00  0.00    -0.390 OA
ATOM     20  H   UNL     1      -6.625   8.683  21.625  0.00  0.00    +0.210 HD
ENDBRANCH   9  19
BRANCH   7  21
ATOM     21  O   UNL     1      -5.729  13.557  21.531  0.00  0.00    -0.343 OA
ATOM     22  C   UNL     1      -7.110  13.324  21.158  0.00  0.00    +0.198 C 
ENDBRANCH   7  21
ENDBRANCH   4   5
BRANCH   4  23
ATOM     23  O   UNL     1      -2.014  10.742  25.350  0.00  0.00    -0.387 OA
ATOM     24  H   UNL     1      -1.424  10.588  24.609  0.00  0.00    +0.210 HD
ENDBRANCH   4  23
ENDBRANCH   1   4
BRANCH   1  25
ATOM     25  C   UNL     1      -3.311  11.836  27.463  0.00  0.00    +0.141 C 
BRANCH  25  28
ATOM     26  C   UNL     1      -2.888   9.587  28.396  0.00  0.00    +0.401 C 
ATOM     27  O   UNL     1      -1.753   9.501  27.920  0.00  0.00    -0.226 OA
ATOM     28  N   UNL     1      -3.689  10.640  28.227  0.00  0.00    -0.279 N 
ATOM     29  H   UNL     1      -4.607  10.614  28.648  0.00  0.00    +0.152 HD
BRANCH  26  30
ATOM     30  O   UNL     1      -3.399   8.503  29.175  0.00  0.00    -0.444 OA
BRANCH  30  31
ATOM     31  C   UNL     1      -2.734   8.469  30.441  0.00  0.00    +0.292 C 
BRANCH  31  33
ATOM     32  N   UNL     1      -4.719   9.696  31.274  0.00  0.00    -0.131 NA
ATOM     33  C   UNL     1      -3.388   9.386  31.391  0.00  0.00    +0.120 A 
ATOM     34  C   UNL     1      -2.866  10.053  32.476  0.00  0.00    +0.137 A 
ATOM     35  N   UNL     1      -3.923  10.757  32.967  0.00  0.00    -0.248 N 
ATOM     36  N   UNL     1      -5.036  10.539  32.248  0.00  0.00    -0.065 NA
BRANCH  35  37
ATOM     37  C   UNL     1      -3.948  11.639  34.113  0.00  0.00    +0.186 C 
BRANCH  37  38
ATOM     38  C   UNL     1      -3.067  12.866  33.904  0.00  0.00    +0.255 C 
BRANCH  38  39
ATOM     39  O   UNL     1      -3.542  13.700  32.828  0.00  0.00    -0.463 OA
BRANCH  39  40
ATOM     40  C   UNL     1      -2.620  14.045  31.890  0.00  0.00    +0.304 C 
ATOM     41  O   UNL     1      -1.418  13.837  31.982  0.00  0.00    -0.251 OA
ATOM     42  C   UNL     1      -3.276  14.688  30.707  0.00  0.00    +0.136 C 
ENDBRANCH  39  40
ENDBRANCH  38  39
ENDBRANCH  37  38
ENDBRANCH  35  37
ENDBRANCH  31  33
ENDBRANCH  30  31
ENDBRANCH  26  30
ENDBRANCH  25  28
ENDBRANCH   1  25
TORSDOF 17
