REMARK VINA RESULT:    -4.721      4.971     11.016
REMARK INTER + INTRA:         -10.458
REMARK INTER:                  -7.845
REMARK INTRA:                  -2.613
REMARK UNBOUND:                -2.287
REMARK  Name = lig_assembled_52.pdb
REMARK  16 active torsions:
REMARK  status: ('A' for Active; 'I' for Inactive)
REMARK    1  A    between atoms: _2  and  _10
REMARK    2  A    between atoms: _5  and  _18
REMARK    3  A    between atoms: _7  and  _8
REMARK    4  A    between atoms: _7  and  _18
REMARK    5  A    between atoms: _14  and  _34
REMARK    6  A    between atoms: _16  and  _22
REMARK    7  A    between atoms: _17  and  _21
REMARK    8  A    between atoms: _21  and  _22
REMARK    9  A    between atoms: _24  and  _25
REMARK   10  A    between atoms: _26  and  _27
REMARK   11  A    between atoms: _28  and  _30
REMARK   12  A    between atoms: _30  and  _31
REMARK   13  A    between atoms: _30  and  _32
REMARK   14  A    between atoms: _32  and  _33
REMARK   15  A    between atoms: _32  and  _34
REMARK   16  A    between atoms: _35  and  _37
REMARK                            x       y       z     vdW  Elec       q    Type
REMARK                         _______ _______ _______ _____ _____    ______ ____
ROOT
ATOM      1  C   UNL     1      -6.483   9.325  23.563  0.00  0.00    +0.163 C 
ENDROOT
BRANCH   1   2
ATOM      2  O   UNL     1      -6.903   9.702  24.885  0.00  0.00    -0.388 OA
ATOM      3  H   UNL     1      -6.497   9.117  25.529  0.00  0.00    +0.210 HD
ENDBRANCH   1   2
BRANCH   1   4
ATOM      4  C   UNL     1      -7.540   8.438  22.913  0.00  0.00    +0.141 C 
BRANCH   4   7
ATOM      5  C   UNL     1      -7.707   8.521  20.449  0.00  0.00    +0.401 C 
ATOM      6  O   UNL     1      -6.959   7.556  20.272  0.00  0.00    -0.226 OA
ATOM      7  N   UNL     1      -8.028   9.005  21.649  0.00  0.00    -0.279 N 
ATOM      8  H   UNL     1      -8.641   9.807  21.692  0.00  0.00    +0.152 HD
BRANCH   5   9
ATOM      9  O   UNL     1      -8.271   9.179  19.312  0.00  0.00    -0.444 OA
BRANCH   9  10
ATOM     10  C   UNL     1      -7.925  10.566  19.343  0.00  0.00    +0.292 C 
BRANCH  10  12
ATOM     11  N   UNL     1      -6.497  12.146  18.086  0.00  0.00    -0.131 NA
ATOM     12  C   UNL     1      -6.937  10.871  18.292  0.00  0.00    +0.121 A 
ATOM     13  C   UNL     1      -6.311  10.032  17.399  0.00  0.00    +0.143 A 
ATOM     14  N   UNL     1      -5.473  10.846  16.672  0.00  0.00    -0.218 N 
ATOM     15  N   UNL     1      -5.611  12.124  17.099  0.00  0.00    -0.060 NA
BRANCH  14  16
ATOM     16  C   UNL     1      -4.571  10.492  15.646  0.00  0.00    +0.085 A 
ATOM     17  C   UNL     1      -4.501   9.193  15.137  0.00  0.00    +0.031 A 
ATOM     18  C   UNL     1      -3.574   8.902  14.138  0.00  0.00    +0.022 A 
ATOM     19  C   UNL     1      -2.752   9.919  13.682  0.00  0.00    +0.111 A 
ATOM     20  N   UNL     1      -2.802  11.186  14.148  0.00  0.00    -0.261 NA
ATOM     21  C   UNL     1      -3.709  11.448  15.120  0.00  0.00    +0.138 A 
ENDBRANCH  14  16
ENDBRANCH  10  12
ENDBRANCH   9  10
ENDBRANCH   5   9
ENDBRANCH   4   7
ENDBRANCH   1   4
BRANCH   1  22
ATOM     22  C   UNL     1      -5.140   8.576  23.605  0.00  0.00    +0.175 C 
BRANCH  22  23
ATOM     23  C   UNL     1      -4.034   9.410  24.269  0.00  0.00    +0.176 C 
ATOM     24  O   UNL     1      -4.334   9.501  25.689  0.00  0.00    -0.332 OA
ATOM     25  C   UNL     1      -3.324  10.177  26.509  0.00  0.00    +0.277 C 
ATOM     26  C   UNL     1      -3.026  11.588  25.946  0.00  0.00    +0.110 C 
ATOM     27  C   UNL     1      -2.733  11.547  24.431  0.00  0.00    +0.143 C 
ATOM     28  C   UNL     1      -3.845  10.819  23.676  0.00  0.00    +0.133 C 
BRANCH  28  29
ATOM     29  N   UNL     1      -3.512  10.710  22.247  0.00  0.00    -0.308 N 
ATOM     30  H   UNL     1      -2.737  10.116  21.987  0.00  0.00    +0.149 HD
ATOM     31  C   UNL     1      -4.167  11.344  21.271  0.00  0.00    +0.210 C 
ATOM     32  C   UNL     1      -5.327  12.261  21.701  0.00  0.00    +0.109 C 
ATOM     33  O   UNL     1      -3.875  11.222  20.081  0.00  0.00    -0.276 OA
ENDBRANCH  28  29
BRANCH  25  34
ATOM     34  C   UNL     1      -2.019   9.356  26.556  0.00  0.00    +0.414 C 
ATOM     35  O   UNL     1      -2.057   8.127  26.494  0.00  0.00    -0.240 OA
ATOM     36  O   UNL     1      -0.929   9.920  26.657  0.00  0.00    -0.240 OA
ENDBRANCH  25  34
BRANCH  27  37
ATOM     37  O   UNL     1      -2.614  12.878  23.927  0.00  0.00    -0.390 OA
ATOM     38  H   UNL     1      -1.790  12.965  23.443  0.00  0.00    +0.210 HD
ENDBRANCH  27  37
BRANCH  25  39
ATOM     39  O   UNL     1      -3.858  10.323  27.850  0.00  0.00    -0.343 OA
ATOM     40  C   UNL     1      -3.878  11.682  28.357  0.00  0.00    +0.198 C 
ENDBRANCH  25  39
ENDBRANCH  22  23
BRANCH  22  41
ATOM     41  O   UNL     1      -4.742   8.195  22.273  0.00  0.00    -0.387 OA
ATOM     42  H   UNL     1      -3.912   7.714  22.312  0.00  0.00    +0.210 HD
ENDBRANCH  22  41
ENDBRANCH   1  22
TORSDOF 14
