REMARK VINA RESULT:    -5.067      3.579     11.901
REMARK INTER + INTRA:         -13.791
REMARK INTER:                 -10.687
REMARK INTRA:                  -3.104
REMARK UNBOUND:                -3.392
REMARK  Name = lig_assembled_47.pdb
REMARK  22 active torsions:
REMARK  status: ('A' for Active; 'I' for Inactive)
REMARK    1  A    between atoms: _2  and  _9
REMARK    2  A    between atoms: _4  and  _30
REMARK    3  A    between atoms: _6  and  _7
REMARK    4  A    between atoms: _6  and  _30
REMARK    5  A    between atoms: _9  and  _10
REMARK    6  A    between atoms: _10  and  _11
REMARK    7  A    between atoms: _10  and  _12
REMARK    8  A    between atoms: _11  and  _24
REMARK    9  A    between atoms: _12  and  _13
REMARK   10  A    between atoms: _12  and  _19
REMARK   11  A    between atoms: _26  and  _46
REMARK   12  A    between atoms: _28  and  _34
REMARK   13  A    between atoms: _29  and  _33
REMARK   14  A    between atoms: _33  and  _34
REMARK   15  A    between atoms: _36  and  _37
REMARK   16  A    between atoms: _38  and  _39
REMARK   17  A    between atoms: _40  and  _42
REMARK   18  A    between atoms: _42  and  _43
REMARK   19  A    between atoms: _42  and  _44
REMARK   20  A    between atoms: _44  and  _45
REMARK   21  A    between atoms: _44  and  _46
REMARK   22  A    between atoms: _47  and  _49
REMARK                            x       y       z     vdW  Elec       q    Type
REMARK                         _______ _______ _______ _____ _____    ______ ____
ROOT
ATOM      1  C   UNL     1      -5.193  10.928  19.106  0.00  0.00    +0.401 C 
ATOM      2  O   UNL     1      -4.857  12.079  18.817  0.00  0.00    -0.226 OA
ATOM      3  N   UNL     1      -6.152  10.251  18.473  0.00  0.00    -0.279 N 
ATOM      4  H   UNL     1      -6.349   9.308  18.777  0.00  0.00    +0.152 HD
ENDROOT
BRANCH   3   5
ATOM      5  C   UNL     1      -6.937  10.799  17.361  0.00  0.00    +0.141 C 
BRANCH   5   6
ATOM      6  C   UNL     1      -6.231  10.615  16.022  0.00  0.00    +0.163 C 
BRANCH   6   7
ATOM      7  O   UNL     1      -5.434  11.773  15.723  0.00  0.00    -0.388 OA
ATOM      8  H   UNL     1      -5.924  12.567  15.952  0.00  0.00    +0.210 HD
ENDBRANCH   6   7
BRANCH   6   9
ATOM      9  C   UNL     1      -5.361   9.347  16.069  0.00  0.00    +0.175 C 
BRANCH   9  10
ATOM     10  C   UNL     1      -4.251   9.367  15.008  0.00  0.00    +0.176 C 
ATOM     11  O   UNL     1      -4.813   9.913  13.783  0.00  0.00    -0.332 OA
ATOM     12  C   UNL     1      -3.865  10.108  12.682  0.00  0.00    +0.277 C 
ATOM     13  C   UNL     1      -3.117   8.788  12.372  0.00  0.00    +0.110 C 
ATOM     14  C   UNL     1      -2.529   8.153  13.650  0.00  0.00    +0.143 C 
ATOM     15  C   UNL     1      -3.601   7.999  14.729  0.00  0.00    +0.133 C 
BRANCH  15  16
ATOM     16  N   UNL     1      -3.010   7.475  15.971  0.00  0.00    -0.308 N 
ATOM     17  H   UNL     1      -2.366   8.069  16.475  0.00  0.00    +0.149 HD
ATOM     18  C   UNL     1      -3.268   6.265  16.474  0.00  0.00    +0.210 C 
ATOM     19  C   UNL     1      -4.233   5.374  15.669  0.00  0.00    +0.109 C 
ATOM     20  O   UNL     1      -2.770   5.857  17.524  0.00  0.00    -0.276 OA
ENDBRANCH  15  16
BRANCH  12  21
ATOM     21  C   UNL     1      -2.843  11.210  13.029  0.00  0.00    +0.414 C 
ATOM     22  O   UNL     1      -3.111  12.059  13.879  0.00  0.00    -0.240 OA
ATOM     23  O   UNL     1      -1.751  11.251  12.460  0.00  0.00    -0.240 OA
ENDBRANCH  12  21
BRANCH  12  24
ATOM     24  O   UNL     1      -4.619  10.494  11.504  0.00  0.00    -0.343 OA
ATOM     25  C   UNL     1      -5.837  11.232  11.771  0.00  0.00    +0.198 C 
ENDBRANCH  12  24
BRANCH  14  26
ATOM     26  O   UNL     1      -1.983   6.870  13.342  0.00  0.00    -0.390 OA
ATOM     27  H   UNL     1      -1.068   6.967  13.069  0.00  0.00    +0.210 HD
ENDBRANCH  14  26
ENDBRANCH   9  10
BRANCH   9  28
ATOM     28  O   UNL     1      -6.184   8.174  15.904  0.00  0.00    -0.387 OA
ATOM     29  H   UNL     1      -5.649   7.452  15.567  0.00  0.00    +0.210 HD
ENDBRANCH   9  28
ENDBRANCH   6   9
ENDBRANCH   5   6
ENDBRANCH   3   5
BRANCH   1  30
ATOM     30  O   UNL     1      -4.525  10.258  20.178  0.00  0.00    -0.444 OA
BRANCH  30  31
ATOM     31  C   UNL     1      -4.283  11.182  21.242  0.00  0.00    +0.292 C 
BRANCH  31  33
ATOM     32  N   UNL     1      -3.663   9.220  22.632  0.00  0.00    -0.131 NA
ATOM     33  C   UNL     1      -4.186  10.484  22.540  0.00  0.00    +0.120 A 
ATOM     34  C   UNL     1      -4.585  10.893  23.793  0.00  0.00    +0.137 A 
ATOM     35  N   UNL     1      -4.323   9.820  24.592  0.00  0.00    -0.251 N 
ATOM     36  N   UNL     1      -3.750   8.824  23.895  0.00  0.00    -0.065 NA
BRANCH  35  37
ATOM     37  C   UNL     1      -4.724   9.612  25.977  0.00  0.00    +0.160 C 
BRANCH  37  38
ATOM     38  C   UNL     1      -3.724  10.155  27.001  0.00  0.00    +0.131 C 
BRANCH  38  39
ATOM     39  C   UNL     1      -2.341  10.097  26.365  0.00  0.00    +0.311 C 
ATOM     40  O   UNL     1      -1.764  11.087  25.941  0.00  0.00    -0.251 OA
BRANCH  39  41
ATOM     41  O   UNL     1      -1.712   8.904  26.384  0.00  0.00    -0.480 OA
ATOM     42  H   UNL     1      -2.197   8.125  26.702  0.00  0.00    +0.295 HD
ENDBRANCH  39  41
ENDBRANCH  38  39
BRANCH  38  43
ATOM     43  C   UNL     1      -4.056  11.580  27.545  0.00  0.00    +0.064 C 
BRANCH  43  44
ATOM     44  C   UNL     1      -5.416  12.147  27.135  0.00  0.00    -0.039 A 
ATOM     45  C   UNL     1      -6.596  11.577  27.652  0.00  0.00    +0.004 A 
ATOM     46  C   UNL     1      -7.855  12.072  27.296  0.00  0.00    +0.000 A 
ATOM     47  C   UNL     1      -7.961  13.134  26.404  0.00  0.00    +0.000 A 
ATOM     48  C   UNL     1      -6.809  13.698  25.868  0.00  0.00    +0.000 A 
ATOM     49  C   UNL     1      -5.547  13.217  26.236  0.00  0.00    +0.004 A 
ENDBRANCH  43  44
BRANCH  43  50
ATOM     50  C   UNL     1      -3.816  11.639  29.059  0.00  0.00    -0.039 A 
ATOM     51  C   UNL     1      -3.849  12.869  29.737  0.00  0.00    +0.004 A 
ATOM     52  C   UNL     1      -3.463  12.952  31.078  0.00  0.00    +0.000 A 
ATOM     53  C   UNL     1      -3.064  11.808  31.766  0.00  0.00    +0.000 A 
ATOM     54  C   UNL     1      -3.062  10.578  31.121  0.00  0.00    +0.000 A 
ATOM     55  C   UNL     1      -3.434  10.495  29.780  0.00  0.00    +0.004 A 
ENDBRANCH  43  50
ENDBRANCH  38  43
ENDBRANCH  37  38
ENDBRANCH  35  37
ENDBRANCH  31  33
ENDBRANCH  30  31
ENDBRANCH   1  30
TORSDOF 20
