REMARK VINA RESULT:    -3.973      2.147      7.872
REMARK INTER + INTRA:         -10.729
REMARK INTER:                  -7.359
REMARK INTRA:                  -3.371
REMARK UNBOUND:                -3.505
REMARK  Name = lig_assembled_22.pdb
REMARK  20 active torsions:
REMARK  status: ('A' for Active; 'I' for Inactive)
REMARK    1  A    between atoms: _2  and  _9
REMARK    2  A    between atoms: _4  and  _18
REMARK    3  A    between atoms: _5  and  _9
REMARK    4  A    between atoms: _5  and  _12
REMARK    5  A    between atoms: _6  and  _7
REMARK    6  A    between atoms: _6  and  _18
REMARK    7  A    between atoms: _9  and  _10
REMARK    8  A    between atoms: _9  and  _11
REMARK    9  A    between atoms: _14  and  _34
REMARK   10  A    between atoms: _16  and  _22
REMARK   11  A    between atoms: _17  and  _21
REMARK   12  A    between atoms: _21  and  _22
REMARK   13  A    between atoms: _24  and  _25
REMARK   14  A    between atoms: _26  and  _27
REMARK   15  A    between atoms: _28  and  _30
REMARK   16  A    between atoms: _30  and  _31
REMARK   17  A    between atoms: _30  and  _32
REMARK   18  A    between atoms: _32  and  _33
REMARK   19  A    between atoms: _32  and  _34
REMARK   20  A    between atoms: _35  and  _37
REMARK                            x       y       z     vdW  Elec       q    Type
REMARK                         _______ _______ _______ _____ _____    ______ ____
ROOT
ATOM      1  C   UNL     1      -5.964   8.425  24.792  0.00  0.00    +0.163 C 
ENDROOT
BRANCH   1   2
ATOM      2  O   UNL     1      -6.025   9.211  25.994  0.00  0.00    -0.388 OA
ATOM      3  H   UNL     1      -5.151   9.263  26.387  0.00  0.00    +0.210 HD
ENDBRANCH   1   2
BRANCH   1   4
ATOM      4  C   UNL     1      -4.651   7.652  24.740  0.00  0.00    +0.141 C 
BRANCH   4   7
ATOM      5  C   UNL     1      -2.649   7.395  26.167  0.00  0.00    +0.401 C 
ATOM      6  O   UNL     1      -2.353   6.287  25.714  0.00  0.00    -0.226 OA
ATOM      7  N   UNL     1      -3.710   8.102  25.774  0.00  0.00    -0.279 N 
ATOM      8  H   UNL     1      -3.875   8.997  26.211  0.00  0.00    +0.152 HD
BRANCH   5   9
ATOM      9  O   UNL     1      -1.822   7.976  27.178  0.00  0.00    -0.444 OA
BRANCH   9  10
ATOM     10  C   UNL     1      -2.309   7.597  28.469  0.00  0.00    +0.292 C 
BRANCH  10  12
ATOM     11  N   UNL     1      -4.354   8.943  28.795  0.00  0.00    -0.131 NA
ATOM     12  C   UNL     1      -3.038   8.720  29.089  0.00  0.00    +0.120 A 
ATOM     13  C   UNL     1      -2.610   9.674  29.987  0.00  0.00    +0.138 A 
ATOM     14  N   UNL     1      -3.714  10.451  30.202  0.00  0.00    -0.235 N 
ATOM     15  N   UNL     1      -4.756  10.004  29.476  0.00  0.00    -0.064 NA
BRANCH  14  16
ATOM     16  C   UNL     1      -3.865  11.636  31.050  0.00  0.00    +0.155 C 
ATOM     17  C   UNL     1      -2.665  11.827  32.003  0.00  0.00    +0.048 C 
ATOM     18  C   UNL     1      -5.139  11.476  31.899  0.00  0.00    +0.048 C 
BRANCH  16  19
ATOM     19  C   UNL     1      -3.975  12.896  30.188  0.00  0.00    +0.332 C 
ATOM     20  O   UNL     1      -4.400  13.972  30.594  0.00  0.00    -0.248 OA
BRANCH  19  21
ATOM     21  O   UNL     1      -3.562  12.759  28.905  0.00  0.00    -0.479 OA
ATOM     22  H   UNL     1      -2.922  12.043  28.728  0.00  0.00    +0.295 HD
ENDBRANCH  19  21
ENDBRANCH  16  19
ENDBRANCH  14  16
ENDBRANCH  10  12
ENDBRANCH   9  10
ENDBRANCH   5   9
ENDBRANCH   4   7
ENDBRANCH   1   4
BRANCH   1  23
ATOM     23  C   UNL     1      -6.085   9.317  23.544  0.00  0.00    +0.175 C 
BRANCH  23  24
ATOM     24  C   UNL     1      -5.029  10.432  23.526  0.00  0.00    +0.176 C 
ATOM     25  O   UNL     1      -5.374  11.391  24.563  0.00  0.00    -0.332 OA
ATOM     26  C   UNL     1      -4.412  12.479  24.765  0.00  0.00    +0.277 C 
ATOM     27  C   UNL     1      -4.146  13.221  23.433  0.00  0.00    +0.110 C 
ATOM     28  C   UNL     1      -3.807  12.239  22.292  0.00  0.00    +0.143 C 
ATOM     29  C   UNL     1      -4.871  11.148  22.172  0.00  0.00    +0.133 C 
BRANCH  29  30
ATOM     30  N   UNL     1      -4.492  10.169  21.140  0.00  0.00    -0.308 N 
ATOM     31  H   UNL     1      -3.623   9.669  21.261  0.00  0.00    +0.149 HD
ATOM     32  C   UNL     1      -5.222   9.900  20.055  0.00  0.00    +0.210 C 
ATOM     33  C   UNL     1      -6.528  10.698  19.886  0.00  0.00    +0.109 C 
ATOM     34  O   UNL     1      -4.887   9.065  19.214  0.00  0.00    -0.276 OA
ENDBRANCH  29  30
BRANCH  26  35
ATOM     35  C   UNL     1      -3.082  11.935  25.327  0.00  0.00    +0.414 C 
ATOM     36  O   UNL     1      -2.011  12.422  24.965  0.00  0.00    -0.240 OA
ATOM     37  O   UNL     1      -3.079  11.011  26.141  0.00  0.00    -0.240 OA
ENDBRANCH  26  35
BRANCH  26  38
ATOM     38  O   UNL     1      -4.990  13.420  25.706  0.00  0.00    -0.343 OA
ATOM     39  C   UNL     1      -6.239  14.022  25.280  0.00  0.00    +0.198 C 
ENDBRANCH  26  38
BRANCH  28  40
ATOM     40  O   UNL     1      -3.719  12.949  21.056  0.00  0.00    -0.390 OA
ATOM     41  H   UNL     1      -4.317  12.554  20.416  0.00  0.00    +0.210 HD
ENDBRANCH  28  40
ENDBRANCH  23  24
BRANCH  23  42
ATOM     42  O   UNL     1      -7.408   9.885  23.466  0.00  0.00    -0.387 OA
ATOM     43  H   UNL     1      -7.351  10.787  23.144  0.00  0.00    +0.210 HD
ENDBRANCH  23  42
ENDBRANCH   1  23
TORSDOF 16
