REMARK VINA RESULT:    -4.391      2.815      6.442
REMARK INTER + INTRA:         -14.041
REMARK INTER:                  -9.046
REMARK INTRA:                  -4.995
REMARK UNBOUND:                -3.746
REMARK  Name = lig_assembled_30.pdb
REMARK  27 active torsions:
REMARK  status: ('A' for Active; 'I' for Inactive)
REMARK    1  A    between atoms: _2  and  _9
REMARK    2  A    between atoms: _4  and  _25
REMARK    3  A    between atoms: _5  and  _18
REMARK    4  A    between atoms: _5  and  _19
REMARK    5  A    between atoms: _6  and  _7
REMARK    6  A    between atoms: _6  and  _25
REMARK    7  A    between atoms: _9  and  _10
REMARK    8  A    between atoms: _10  and  _11
REMARK    9  A    between atoms: _11  and  _12
REMARK   10  A    between atoms: _12  and  _13
REMARK   11  A    between atoms: _13  and  _14
REMARK   12  A    between atoms: _14  and  _15
REMARK   13  A    between atoms: _15  and  _16
REMARK   14  A    between atoms: _16  and  _17
REMARK   15  A    between atoms: _17  and  _18
REMARK   16  A    between atoms: _21  and  _41
REMARK   17  A    between atoms: _23  and  _29
REMARK   18  A    between atoms: _24  and  _28
REMARK   19  A    between atoms: _28  and  _29
REMARK   20  A    between atoms: _31  and  _32
REMARK   21  A    between atoms: _33  and  _34
REMARK   22  A    between atoms: _35  and  _37
REMARK   23  A    between atoms: _37  and  _38
REMARK   24  A    between atoms: _37  and  _39
REMARK   25  A    between atoms: _39  and  _40
REMARK   26  A    between atoms: _39  and  _41
REMARK   27  A    between atoms: _42  and  _44
REMARK                            x       y       z     vdW  Elec       q    Type
REMARK                         _______ _______ _______ _____ _____    ______ ____
ROOT
ATOM      1  C   UNL     1      -3.317   9.684  29.337  0.00  0.00    +0.401 C 
ATOM      2  O   UNL     1      -3.245   8.462  29.186  0.00  0.00    -0.226 OA
ATOM      3  N   UNL     1      -2.841  10.572  28.463  0.00  0.00    -0.279 N 
ATOM      4  H   UNL     1      -2.956  11.554  28.670  0.00  0.00    +0.152 HD
ENDROOT
BRANCH   1   5
ATOM      5  O   UNL     1      -3.948  10.203  30.510  0.00  0.00    -0.444 OA
BRANCH   5   6
ATOM      6  C   UNL     1      -2.951  10.551  31.475  0.00  0.00    +0.292 C 
BRANCH   6   8
ATOM      7  N   UNL     1      -1.835  12.611  32.273  0.00  0.00    -0.131 NA
ATOM      8  C   UNL     1      -2.904  12.013  31.659  0.00  0.00    +0.120 A 
ATOM      9  C   UNL     1      -3.817  12.979  31.299  0.00  0.00    +0.137 A 
ATOM     10  N   UNL     1      -3.245  14.140  31.723  0.00  0.00    -0.251 N 
ATOM     11  N   UNL     1      -2.057  13.919  32.308  0.00  0.00    -0.065 NA
BRANCH  10  12
ATOM     12  C   UNL     1      -3.787  15.479  31.643  0.00  0.00    +0.145 C 
BRANCH  12  13
ATOM     13  C   UNL     1      -4.747  15.616  30.467  0.00  0.00    +0.023 C 
BRANCH  13  14
ATOM     14  C   UNL     1      -5.182  17.064  30.249  0.00  0.00    +0.002 C 
BRANCH  14  15
ATOM     15  C   UNL     1      -6.404  17.115  29.333  0.00  0.00    +0.000 C 
BRANCH  15  16
ATOM     16  C   UNL     1      -6.446  15.927  28.377  0.00  0.00    +0.000 C 
BRANCH  16  17
ATOM     17  C   UNL     1      -6.951  16.357  26.999  0.00  0.00    +0.000 C 
BRANCH  17  18
ATOM     18  C   UNL     1      -7.907  15.317  26.420  0.00  0.00    +0.000 C 
BRANCH  18  19
ATOM     19  C   UNL     1      -7.153  14.165  25.757  0.00  0.00    +0.001 C 
BRANCH  19  20
ATOM     20  C   UNL     1      -6.111  14.702  24.776  0.00  0.00    +0.011 C 
BRANCH  20  21
ATOM     21  C   UNL     1      -4.908  13.771  24.656  0.00  0.00    +0.120 C 
BRANCH  21  22
ATOM     22  C   UNL     1      -4.119  14.047  23.397  0.00  0.00    +0.305 C 
ATOM     23  O   UNL     1      -4.380  14.909  22.572  0.00  0.00    -0.251 OA
BRANCH  22  24
ATOM     24  O   UNL     1      -3.057  13.220  23.262  0.00  0.00    -0.481 OA
ATOM     25  H   UNL     1      -3.285  12.274  23.337  0.00  0.00    +0.295 HD
ENDBRANCH  22  24
ENDBRANCH  21  22
ENDBRANCH  20  21
ENDBRANCH  19  20
ENDBRANCH  18  19
ENDBRANCH  17  18
ENDBRANCH  16  17
ENDBRANCH  15  16
ENDBRANCH  14  15
ENDBRANCH  13  14
ENDBRANCH  12  13
ENDBRANCH  10  12
ENDBRANCH   6   8
ENDBRANCH   5   6
ENDBRANCH   1   5
BRANCH   3  26
ATOM     26  C   UNL     1      -2.159  10.202  27.216  0.00  0.00    +0.141 C 
BRANCH  26  27
ATOM     27  C   UNL     1      -2.980  10.579  25.986  0.00  0.00    +0.163 C 
BRANCH  27  28
ATOM     28  O   UNL     1      -2.214  11.442  25.130  0.00  0.00    -0.388 OA
ATOM     29  H   UNL     1      -2.487  12.352  25.265  0.00  0.00    +0.210 HD
ENDBRANCH  27  28
BRANCH  27  30
ATOM     30  C   UNL     1      -3.405   9.301  25.242  0.00  0.00    +0.175 C 
BRANCH  30  31
ATOM     31  C   UNL     1      -4.673   9.517  24.403  0.00  0.00    +0.176 C 
ATOM     32  O   UNL     1      -4.323  10.362  23.272  0.00  0.00    -0.332 OA
ATOM     33  C   UNL     1      -5.392  10.591  22.296  0.00  0.00    +0.277 C 
ATOM     34  C   UNL     1      -6.654  11.151  22.998  0.00  0.00    +0.110 C 
ATOM     35  C   UNL     1      -7.047  10.303  24.226  0.00  0.00    +0.143 C 
ATOM     36  C   UNL     1      -5.860  10.125  25.173  0.00  0.00    +0.133 C 
BRANCH  36  37
ATOM     37  N   UNL     1      -6.222   9.244  26.294  0.00  0.00    -0.308 N 
ATOM     38  H   UNL     1      -6.330   8.258  26.103  0.00  0.00    +0.149 HD
ATOM     39  C   UNL     1      -6.417   9.662  27.547  0.00  0.00    +0.210 C 
ATOM     40  C   UNL     1      -6.270  11.174  27.801  0.00  0.00    +0.109 C 
ATOM     41  O   UNL     1      -6.705   8.899  28.470  0.00  0.00    -0.276 OA
ENDBRANCH  36  37
BRANCH  33  42
ATOM     42  C   UNL     1      -5.750   9.283  21.560  0.00  0.00    +0.414 C 
ATOM     43  O   UNL     1      -5.030   8.292  21.673  0.00  0.00    -0.240 OA
ATOM     44  O   UNL     1      -6.757   9.219  20.854  0.00  0.00    -0.240 OA
ENDBRANCH  33  42
BRANCH  35  45
ATOM     45  O   UNL     1      -8.118  10.937  24.927  0.00  0.00    -0.390 OA
ATOM     46  H   UNL     1      -7.856  11.094  25.837  0.00  0.00    +0.210 HD
ENDBRANCH  35  45
BRANCH  33  47
ATOM     47  O   UNL     1      -4.925  11.577  21.341  0.00  0.00    -0.343 OA
ATOM     48  C   UNL     1      -3.863  11.124  20.464  0.00  0.00    +0.198 C 
ENDBRANCH  33  47
ENDBRANCH  30  31
BRANCH  30  49
ATOM     49  O   UNL     1      -3.606   8.224  26.179  0.00  0.00    -0.387 OA
ATOM     50  H   UNL     1      -4.039   7.491  25.735  0.00  0.00    +0.210 HD
ENDBRANCH  30  49
ENDBRANCH  27  30
ENDBRANCH  26  27
ENDBRANCH   3  26
TORSDOF 25
