REMARK VINA RESULT:    -5.103      6.001      9.847
REMARK INTER + INTRA:         -11.925
REMARK INTER:                  -9.733
REMARK INTRA:                  -2.192
REMARK UNBOUND:                -3.093
REMARK  Name = lig_assembled_80.pdb
REMARK  16 active torsions:
REMARK  status: ('A' for Active; 'I' for Inactive)
REMARK    1  A    between atoms: _2  and  _10
REMARK    2  A    between atoms: _5  and  _24
REMARK    3  A    between atoms: _7  and  _8
REMARK    4  A    between atoms: _7  and  _24
REMARK    5  A    between atoms: _20  and  _40
REMARK    6  A    between atoms: _22  and  _28
REMARK    7  A    between atoms: _23  and  _27
REMARK    8  A    between atoms: _27  and  _28
REMARK    9  A    between atoms: _30  and  _31
REMARK   10  A    between atoms: _32  and  _33
REMARK   11  A    between atoms: _34  and  _36
REMARK   12  A    between atoms: _36  and  _37
REMARK   13  A    between atoms: _36  and  _38
REMARK   14  A    between atoms: _38  and  _39
REMARK   15  A    between atoms: _38  and  _40
REMARK   16  A    between atoms: _41  and  _43
REMARK                            x       y       z     vdW  Elec       q    Type
REMARK                         _______ _______ _______ _____ _____    ______ ____
ROOT
ATOM      1  C   UNL     1      -3.686   8.900  14.213  0.00  0.00    +0.141 C 
ENDROOT
BRANCH   1   4
ATOM      2  C   UNL     1      -3.858   7.847  16.441  0.00  0.00    +0.401 C 
ATOM      3  O   UNL     1      -2.943   7.045  16.237  0.00  0.00    -0.226 OA
ATOM      4  N   UNL     1      -4.275   8.746  15.548  0.00  0.00    -0.279 N 
ATOM      5  H   UNL     1      -5.039   9.355  15.805  0.00  0.00    +0.152 HD
BRANCH   2   6
ATOM      6  O   UNL     1      -4.529   7.828  17.704  0.00  0.00    -0.444 OA
BRANCH   6   7
ATOM      7  C   UNL     1      -5.555   8.825  17.715  0.00  0.00    +0.292 C 
BRANCH   7   9
ATOM      8  N   UNL     1      -5.018  11.228  17.805  0.00  0.00    -0.131 NA
ATOM      9  C   UNL     1      -5.101  10.023  18.448  0.00  0.00    +0.120 A 
ATOM     10  C   UNL     1      -4.722  10.177  19.763  0.00  0.00    +0.138 A 
ATOM     11  N   UNL     1      -4.361  11.496  19.845  0.00  0.00    -0.239 N 
ATOM     12  N   UNL     1      -4.577  12.130  18.672  0.00  0.00    -0.065 NA
BRANCH  11  13
ATOM     13  C   UNL     1      -3.970  12.291  21.016  0.00  0.00    +0.195 C 
ATOM     14  C   UNL     1      -5.184  13.077  21.491  0.00  0.00    +0.041 C 
ATOM     15  C   UNL     1      -4.789  14.131  22.504  0.00  0.00    +0.039 C 
ATOM     16  C   UNL     1      -4.732  13.525  23.871  0.00  0.00    -0.026 A 
ATOM     17  C   UNL     1      -3.812  12.533  24.215  0.00  0.00    +0.037 A 
ATOM     18  C   UNL     1      -3.738  12.100  25.550  0.00  0.00    +0.023 A 
ATOM     19  C   UNL     1      -4.643  12.557  26.507  0.00  0.00    +0.002 A 
ATOM     20  C   UNL     1      -5.606  13.488  26.149  0.00  0.00    +0.000 A 
ATOM     21  N   UNL     1      -2.979  11.840  23.319  0.00  0.00    -0.284 N 
ATOM     22  H   UNL     1      -2.353  11.169  23.755  0.00  0.00    +0.155 HD
ATOM     23  C   UNL     1      -5.634  13.988  24.848  0.00  0.00    +0.005 A 
ATOM     24  C   UNL     1      -3.214  11.445  22.034  0.00  0.00    +0.242 C 
ATOM     25  O   UNL     1      -2.666  10.384  21.712  0.00  0.00    -0.273 OA
ENDBRANCH  11  13
ENDBRANCH   7   9
ENDBRANCH   6   7
ENDBRANCH   2   6
ENDBRANCH   1   4
BRANCH   1  26
ATOM     26  C   UNL     1      -2.870  10.183  14.096  0.00  0.00    +0.163 C 
BRANCH  26  27
ATOM     27  O   UNL     1      -2.157  10.201  12.848  0.00  0.00    -0.388 OA
ATOM     28  H   UNL     1      -2.741  10.504  12.149  0.00  0.00    +0.210 HD
ENDBRANCH  26  27
BRANCH  26  29
ATOM     29  C   UNL     1      -3.805  11.399  14.212  0.00  0.00    +0.175 C 
BRANCH  29  30
ATOM     30  C   UNL     1      -3.540  12.439  13.113  0.00  0.00    +0.176 C 
ATOM     31  O   UNL     1      -2.289  13.111  13.426  0.00  0.00    -0.332 OA
ATOM     32  C   UNL     1      -1.818  14.072  12.423  0.00  0.00    +0.277 C 
ATOM     33  C   UNL     1      -2.915  15.122  12.123  0.00  0.00    +0.110 C 
ATOM     34  C   UNL     1      -4.273  14.455  11.816  0.00  0.00    +0.143 C 
ATOM     35  C   UNL     1      -4.664  13.474  12.921  0.00  0.00    +0.133 C 
BRANCH  35  36
ATOM     36  N   UNL     1      -5.916  12.781  12.575  0.00  0.00    -0.308 N 
ATOM     37  H   UNL     1      -5.916  12.187  11.758  0.00  0.00    +0.149 HD
ATOM     38  C   UNL     1      -7.051  12.886  13.271  0.00  0.00    +0.210 C 
ATOM     39  C   UNL     1      -7.026  13.820  14.496  0.00  0.00    +0.109 C 
ATOM     40  O   UNL     1      -8.081  12.283  12.966  0.00  0.00    -0.276 OA
ENDBRANCH  35  36
BRANCH  32  41
ATOM     41  C   UNL     1      -1.423  13.351  11.118  0.00  0.00    +0.414 C 
ATOM     42  O   UNL     1      -1.783  13.797  10.029  0.00  0.00    -0.240 OA
ATOM     43  O   UNL     1      -0.744  12.323  11.153  0.00  0.00    -0.240 OA
ENDBRANCH  32  41
BRANCH  34  44
ATOM     44  O   UNL     1      -5.285  15.456  11.695  0.00  0.00    -0.390 OA
ATOM     45  H   UNL     1      -5.589  15.711  12.568  0.00  0.00    +0.210 HD
ENDBRANCH  34  44
BRANCH  32  46
ATOM     46  O   UNL     1      -0.663  14.760  12.969  0.00  0.00    -0.343 OA
ATOM     47  C   UNL     1      -0.026  15.698  12.066  0.00  0.00    +0.198 C 
ENDBRANCH  32  46
ENDBRANCH  29  30
BRANCH  29  48
ATOM     48  O   UNL     1      -3.671  12.006  15.513  0.00  0.00    -0.387 OA
ATOM     49  H   UNL     1      -3.889  12.940  15.455  0.00  0.00    +0.210 HD
ENDBRANCH  29  48
ENDBRANCH  26  29
ENDBRANCH   1  26
TORSDOF 14
