REMARK VINA RESULT:    -3.575      1.959      6.490
REMARK INTER + INTRA:         -11.870
REMARK INTER:                  -7.544
REMARK INTRA:                  -4.326
REMARK UNBOUND:                -4.638
REMARK  Name = lig_assembled_11.pdb
REMARK  22 active torsions:
REMARK  status: ('A' for Active; 'I' for Inactive)
REMARK    1  A    between atoms: _2  and  _9
REMARK    2  A    between atoms: _4  and  _21
REMARK    3  A    between atoms: _5  and  _9
REMARK    4  A    between atoms: _5  and  _13
REMARK    5  A    between atoms: _6  and  _7
REMARK    6  A    between atoms: _6  and  _21
REMARK    7  A    between atoms: _9  and  _10
REMARK    8  A    between atoms: _10  and  _11
REMARK    9  A    between atoms: _11  and  _12
REMARK   10  A    between atoms: _12  and  _15
REMARK   11  A    between atoms: _17  and  _37
REMARK   12  A    between atoms: _19  and  _25
REMARK   13  A    between atoms: _20  and  _24
REMARK   14  A    between atoms: _24  and  _25
REMARK   15  A    between atoms: _27  and  _28
REMARK   16  A    between atoms: _29  and  _30
REMARK   17  A    between atoms: _31  and  _33
REMARK   18  A    between atoms: _33  and  _34
REMARK   19  A    between atoms: _33  and  _35
REMARK   20  A    between atoms: _35  and  _36
REMARK   21  A    between atoms: _35  and  _37
REMARK   22  A    between atoms: _38  and  _40
REMARK                            x       y       z     vdW  Elec       q    Type
REMARK                         _______ _______ _______ _____ _____    ______ ____
ROOT
ATOM      1  C   UNL     1      -5.637  11.929  27.166  0.00  0.00    +0.163 C 
ENDROOT
BRANCH   1   2
ATOM      2  O   UNL     1      -4.772  10.923  26.613  0.00  0.00    -0.388 OA
ATOM      3  H   UNL     1      -3.868  11.091  26.887  0.00  0.00    +0.210 HD
ENDBRANCH   1   2
BRANCH   1   4
ATOM      4  C   UNL     1      -5.172  12.340  28.573  0.00  0.00    +0.175 C 
BRANCH   4   5
ATOM      5  C   UNL     1      -4.133  11.365  29.147  0.00  0.00    +0.176 C 
ATOM      6  O   UNL     1      -4.721  10.035  29.147  0.00  0.00    -0.332 OA
ATOM      7  C   UNL     1      -3.830   8.948  29.566  0.00  0.00    +0.277 C 
ATOM      8  C   UNL     1      -3.223   9.253  30.958  0.00  0.00    +0.110 C 
ATOM      9  C   UNL     1      -2.614  10.669  31.016  0.00  0.00    +0.143 C 
ATOM     10  C   UNL     1      -3.625  11.721  30.556  0.00  0.00    +0.133 C 
BRANCH  10  11
ATOM     11  N   UNL     1      -3.006  13.055  30.534  0.00  0.00    -0.308 N 
ATOM     12  H   UNL     1      -2.254  13.215  29.878  0.00  0.00    +0.149 HD
ATOM     13  C   UNL     1      -3.372  14.069  31.323  0.00  0.00    +0.210 C 
ATOM     14  C   UNL     1      -4.503  13.785  32.330  0.00  0.00    +0.109 C 
ATOM     15  O   UNL     1      -2.846  15.180  31.272  0.00  0.00    -0.276 OA
ENDBRANCH  10  11
BRANCH   7  16
ATOM     16  C   UNL     1      -2.694   8.746  28.541  0.00  0.00    +0.414 C 
ATOM     17  O   UNL     1      -2.853   9.074  27.366  0.00  0.00    -0.240 OA
ATOM     18  O   UNL     1      -1.620   8.255  28.890  0.00  0.00    -0.240 OA
ENDBRANCH   7  16
BRANCH   7  19
ATOM     19  O   UNL     1      -4.619   7.735  29.666  0.00  0.00    -0.343 OA
ATOM     20  C   UNL     1      -4.680   7.152  30.993  0.00  0.00    +0.198 C 
ENDBRANCH   7  19
BRANCH   9  21
ATOM     21  O   UNL     1      -2.205  10.963  32.352  0.00  0.00    -0.390 OA
ATOM     22  H   UNL     1      -1.482  10.382  32.601  0.00  0.00    +0.210 HD
ENDBRANCH   9  21
ENDBRANCH   4   5
BRANCH   4  23
ATOM     23  O   UNL     1      -6.303  12.439  29.461  0.00  0.00    -0.387 OA
ATOM     24  H   UNL     1      -6.115  11.964  30.274  0.00  0.00    +0.210 HD
ENDBRANCH   4  23
ENDBRANCH   1   4
BRANCH   1  25
ATOM     25  C   UNL     1      -5.659  13.154  26.258  0.00  0.00    +0.141 C 
BRANCH  25  28
ATOM     26  C   UNL     1      -4.381  12.782  24.176  0.00  0.00    +0.401 C 
ATOM     27  O   UNL     1      -3.297  13.093  24.674  0.00  0.00    -0.226 OA
ATOM     28  N   UNL     1      -5.536  12.788  24.841  0.00  0.00    -0.279 N 
ATOM     29  H   UNL     1      -6.375  12.526  24.343  0.00  0.00    +0.152 HD
BRANCH  26  30
ATOM     30  O   UNL     1      -4.427  12.392  22.801  0.00  0.00    -0.444 OA
BRANCH  30  31
ATOM     31  C   UNL     1      -3.689  11.180  22.623  0.00  0.00    +0.292 C 
BRANCH  31  33
ATOM     32  N   UNL     1      -5.758   9.973  23.247  0.00  0.00    -0.131 NA
ATOM     33  C   UNL     1      -4.393  10.050  23.259  0.00  0.00    +0.120 A 
ATOM     34  C   UNL     1      -3.888   8.952  23.917  0.00  0.00    +0.138 A 
ATOM     35  N   UNL     1      -4.995   8.263  24.322  0.00  0.00    -0.238 N 
ATOM     36  N   UNL     1      -6.116   8.869  23.889  0.00  0.00    -0.065 NA
BRANCH  35  37
ATOM     37  C   UNL     1      -5.112   6.971  24.989  0.00  0.00    +0.217 C 
BRANCH  37  38
ATOM     38  C   UNL     1      -5.752   7.047  26.367  0.00  0.00    +0.330 C 
ATOM     39  O   UNL     1      -6.287   6.122  26.960  0.00  0.00    -0.249 OA
BRANCH  38  40
ATOM     40  O   UNL     1      -5.700   8.279  26.933  0.00  0.00    -0.479 OA
ATOM     41  H   UNL     1      -5.046   8.909  26.570  0.00  0.00    +0.295 HD
ENDBRANCH  38  40
ENDBRANCH  37  38
BRANCH  37  42
ATOM     42  C   UNL     1      -3.776   6.207  24.998  0.00  0.00    +0.049 C 
BRANCH  42  43
ATOM     43  C   UNL     1      -3.283   5.784  26.388  0.00  0.00    +0.123 C 
BRANCH  43  44
ATOM     44  C   UNL     1      -1.772   5.734  26.435  0.00  0.00    +0.305 C 
ATOM     45  O   UNL     1      -1.118   5.344  27.387  0.00  0.00    -0.251 OA
BRANCH  44  46
ATOM     46  O   UNL     1      -1.201   6.197  25.300  0.00  0.00    -0.481 OA
ATOM     47  H   UNL     1      -0.661   7.000  25.417  0.00  0.00    +0.295 HD
ENDBRANCH  44  46
ENDBRANCH  43  44
ENDBRANCH  42  43
ENDBRANCH  37  42
ENDBRANCH  35  37
ENDBRANCH  31  33
ENDBRANCH  30  31
ENDBRANCH  26  30
ENDBRANCH  25  28
ENDBRANCH   1  25
TORSDOF 20
