REMARK VINA RESULT:    -4.713      4.228     10.316
REMARK INTER + INTRA:         -11.307
REMARK INTER:                  -9.031
REMARK INTRA:                  -2.276
REMARK UNBOUND:                -2.598
REMARK  Name = lig_assembled_67.pdb
REMARK  18 active torsions:
REMARK  status: ('A' for Active; 'I' for Inactive)
REMARK    1  A    between atoms: _2  and  _9
REMARK    2  A    between atoms: _4  and  _19
REMARK    3  A    between atoms: _6  and  _7
REMARK    4  A    between atoms: _6  and  _19
REMARK    5  A    between atoms: _9  and  _10
REMARK    6  A    between atoms: _10  and  _11
REMARK    7  A    between atoms: _15  and  _35
REMARK    8  A    between atoms: _17  and  _23
REMARK    9  A    between atoms: _18  and  _22
REMARK   10  A    between atoms: _22  and  _23
REMARK   11  A    between atoms: _25  and  _26
REMARK   12  A    between atoms: _27  and  _28
REMARK   13  A    between atoms: _29  and  _31
REMARK   14  A    between atoms: _31  and  _32
REMARK   15  A    between atoms: _31  and  _33
REMARK   16  A    between atoms: _33  and  _34
REMARK   17  A    between atoms: _33  and  _35
REMARK   18  A    between atoms: _36  and  _38
REMARK                            x       y       z     vdW  Elec       q    Type
REMARK                         _______ _______ _______ _____ _____    ______ ____
ROOT
ATOM      1  C   UNL     1      -2.988  12.051  22.668  0.00  0.00    +0.163 C 
ENDROOT
BRANCH   1   2
ATOM      2  O   UNL     1      -2.852  12.844  23.858  0.00  0.00    -0.388 OA
ATOM      3  H   UNL     1      -2.168  13.505  23.727  0.00  0.00    +0.210 HD
ENDBRANCH   1   2
BRANCH   1   4
ATOM      4  C   UNL     1      -3.696  10.720  22.971  0.00  0.00    +0.175 C 
BRANCH   4   5
ATOM      5  C   UNL     1      -3.759  10.428  24.478  0.00  0.00    +0.176 C 
ATOM      6  O   UNL     1      -3.223   9.094  24.698  0.00  0.00    -0.332 OA
ATOM      7  C   UNL     1      -3.105   8.682  26.100  0.00  0.00    +0.277 C 
ATOM      8  C   UNL     1      -4.467   8.825  26.822  0.00  0.00    +0.110 C 
ATOM      9  C   UNL     1      -5.091  10.217  26.591  0.00  0.00    +0.143 C 
ATOM     10  C   UNL     1      -5.163  10.545  25.099  0.00  0.00    +0.133 C 
BRANCH  10  11
ATOM     11  N   UNL     1      -5.678  11.909  24.895  0.00  0.00    -0.308 N 
ATOM     12  H   UNL     1      -5.220  12.664  25.385  0.00  0.00    +0.149 HD
ATOM     13  C   UNL     1      -6.712  12.212  24.106  0.00  0.00    +0.210 C 
ATOM     14  C   UNL     1      -7.406  11.035  23.395  0.00  0.00    +0.109 C 
ATOM     15  O   UNL     1      -7.113  13.365  23.943  0.00  0.00    -0.276 OA
ENDBRANCH  10  11
BRANCH   7  16
ATOM     16  C   UNL     1      -2.042   9.528  26.831  0.00  0.00    +0.414 C 
ATOM     17  O   UNL     1      -1.010   9.862  26.252  0.00  0.00    -0.240 OA
ATOM     18  O   UNL     1      -2.217   9.876  27.999  0.00  0.00    -0.240 OA
ENDBRANCH   7  16
BRANCH   9  19
ATOM     19  O   UNL     1      -6.407  10.254  27.144  0.00  0.00    -0.390 OA
ATOM     20  H   UNL     1      -6.868   9.439  26.929  0.00  0.00    +0.210 HD
ENDBRANCH   9  19
BRANCH   7  21
ATOM     21  O   UNL     1      -2.719   7.284  26.125  0.00  0.00    -0.343 OA
ATOM     22  C   UNL     1      -3.693   6.390  26.720  0.00  0.00    +0.198 C 
ENDBRANCH   7  21
ENDBRANCH   4   5
BRANCH   4  23
ATOM     23  O   UNL     1      -3.037   9.638  22.283  0.00  0.00    -0.387 OA
ATOM     24  H   UNL     1      -3.691   9.006  21.978  0.00  0.00    +0.210 HD
ENDBRANCH   4  23
ENDBRANCH   1   4
BRANCH   1  25
ATOM     25  C   UNL     1      -3.779  12.821  21.615  0.00  0.00    +0.141 C 
BRANCH  25  28
ATOM     26  C   UNL     1      -5.708  12.211  20.196  0.00  0.00    +0.401 C 
ATOM     27  O   UNL     1      -6.323  13.256  20.421  0.00  0.00    -0.226 OA
ATOM     28  N   UNL     1      -4.515  11.922  20.718  0.00  0.00    -0.279 N 
ATOM     29  H   UNL     1      -4.094  11.034  20.482  0.00  0.00    +0.152 HD
BRANCH  26  30
ATOM     30  O   UNL     1      -6.292  11.234  19.331  0.00  0.00    -0.444 OA
BRANCH  30  31
ATOM     31  C   UNL     1      -5.690   9.960  19.575  0.00  0.00    +0.292 C 
BRANCH  31  33
ATOM     32  N   UNL     1      -4.874   8.053  18.225  0.00  0.00    -0.131 NA
ATOM     33  C   UNL     1      -5.163   9.390  18.321  0.00  0.00    +0.120 A 
ATOM     34  C   UNL     1      -4.877   9.997  17.120  0.00  0.00    +0.137 A 
ATOM     35  N   UNL     1      -4.418   8.981  16.338  0.00  0.00    -0.251 N 
ATOM     36  N   UNL     1      -4.414   7.816  17.005  0.00  0.00    -0.065 NA
BRANCH  35  37
ATOM     37  C   UNL     1      -3.981   9.039  14.962  0.00  0.00    +0.150 C 
BRANCH  37  38
ATOM     38  C   UNL     1      -2.878  10.065  14.712  0.00  0.00    +0.084 C 
BRANCH  38  39
ATOM     39  C   UNL     1      -3.225  11.031  13.589  0.00  0.00    +0.252 C 
ATOM     40  O   UNL     1      -3.322  12.366  14.098  0.00  0.00    -0.349 OA
ATOM     41  C   UNL     1      -2.949  13.168  12.979  0.00  0.00    +0.191 C 
ATOM     42  C   UNL     1      -1.876  12.351  12.309  0.00  0.00    +0.191 C 
ATOM     43  O   UNL     1      -2.224  10.989  12.567  0.00  0.00    -0.349 OA
ENDBRANCH  38  39
ENDBRANCH  37  38
ENDBRANCH  35  37
ENDBRANCH  31  33
ENDBRANCH  30  31
ENDBRANCH  26  30
ENDBRANCH  25  28
ENDBRANCH   1  25
TORSDOF 16
