REMARK VINA RESULT:    -3.441      2.292      5.378
REMARK INTER + INTRA:         -11.559
REMARK INTER:                  -6.791
REMARK INTRA:                  -4.768
REMARK UNBOUND:                -4.498
REMARK  Name = lig_assembled_33.pdb
REMARK  22 active torsions:
REMARK  status: ('A' for Active; 'I' for Inactive)
REMARK    1  A    between atoms: _2  and  _9
REMARK    2  A    between atoms: _4  and  _20
REMARK    3  A    between atoms: _5  and  _13
REMARK    4  A    between atoms: _5  and  _14
REMARK    5  A    between atoms: _6  and  _7
REMARK    6  A    between atoms: _6  and  _20
REMARK    7  A    between atoms: _9  and  _10
REMARK    8  A    between atoms: _10  and  _11
REMARK    9  A    between atoms: _11  and  _12
REMARK   10  A    between atoms: _12  and  _13
REMARK   11  A    between atoms: _16  and  _36
REMARK   12  A    between atoms: _18  and  _24
REMARK   13  A    between atoms: _19  and  _23
REMARK   14  A    between atoms: _23  and  _24
REMARK   15  A    between atoms: _26  and  _27
REMARK   16  A    between atoms: _28  and  _29
REMARK   17  A    between atoms: _30  and  _32
REMARK   18  A    between atoms: _32  and  _33
REMARK   19  A    between atoms: _32  and  _34
REMARK   20  A    between atoms: _34  and  _35
REMARK   21  A    between atoms: _34  and  _36
REMARK   22  A    between atoms: _37  and  _39
REMARK                            x       y       z     vdW  Elec       q    Type
REMARK                         _______ _______ _______ _____ _____    ______ ____
ROOT
ATOM      1  C   UNL     1      -5.109  12.103  27.498  0.00  0.00    +0.163 C 
ENDROOT
BRANCH   1   2
ATOM      2  O   UNL     1      -5.682  10.806  27.265  0.00  0.00    -0.388 OA
ATOM      3  H   UNL     1      -6.363  10.873  26.591  0.00  0.00    +0.210 HD
ENDBRANCH   1   2
BRANCH   1   4
ATOM      4  C   UNL     1      -4.981  12.385  29.005  0.00  0.00    +0.175 C 
BRANCH   4   5
ATOM      5  C   UNL     1      -4.042  11.390  29.702  0.00  0.00    +0.176 C 
ATOM      6  O   UNL     1      -4.701  10.094  29.725  0.00  0.00    -0.332 OA
ATOM      7  C   UNL     1      -3.904   8.987  30.263  0.00  0.00    +0.277 C 
ATOM      8  C   UNL     1      -3.383   9.335  31.679  0.00  0.00    +0.110 C 
ATOM      9  C   UNL     1      -2.702  10.719  31.712  0.00  0.00    +0.143 C 
ATOM     10  C   UNL     1      -3.617  11.795  31.126  0.00  0.00    +0.133 C 
BRANCH  10  11
ATOM     11  N   UNL     1      -2.925  13.093  31.082  0.00  0.00    -0.308 N 
ATOM     12  H   UNL     1      -2.086  13.161  30.524  0.00  0.00    +0.149 HD
ATOM     13  C   UNL     1      -3.334  14.186  31.732  0.00  0.00    +0.210 C 
ATOM     14  C   UNL     1      -4.601  14.042  32.595  0.00  0.00    +0.109 C 
ATOM     15  O   UNL     1      -2.742  15.264  31.665  0.00  0.00    -0.276 OA
ENDBRANCH  10  11
BRANCH   7  16
ATOM     16  C   UNL     1      -2.711   8.672  29.338  0.00  0.00    +0.414 C 
ATOM     17  O   UNL     1      -1.870   7.838  29.672  0.00  0.00    -0.240 OA
ATOM     18  O   UNL     1      -2.590   9.250  28.257  0.00  0.00    -0.240 OA
ENDBRANCH   7  16
BRANCH   9  19
ATOM     19  O   UNL     1      -2.373  11.063  33.058  0.00  0.00    -0.390 OA
ATOM     20  H   UNL     1      -3.122  10.875  33.629  0.00  0.00    +0.210 HD
ENDBRANCH   9  19
BRANCH   7  21
ATOM     21  O   UNL     1      -4.764   7.823  30.366  0.00  0.00    -0.343 OA
ATOM     22  C   UNL     1      -6.026   7.930  29.659  0.00  0.00    +0.198 C 
ENDBRANCH   7  21
ENDBRANCH   4   5
BRANCH   4  23
ATOM     23  O   UNL     1      -6.282  12.360  29.626  0.00  0.00    -0.387 OA
ATOM     24  H   UNL     1      -6.602  11.455  29.662  0.00  0.00    +0.210 HD
ENDBRANCH   4  23
ENDBRANCH   1   4
BRANCH   1  25
ATOM     25  C   UNL     1      -3.733  12.189  26.845  0.00  0.00    +0.141 C 
BRANCH  25  28
ATOM     26  C   UNL     1      -3.110  11.195  24.671  0.00  0.00    +0.401 C 
ATOM     27  O   UNL     1      -2.314  10.390  25.160  0.00  0.00    -0.226 OA
ATOM     28  N   UNL     1      -3.812  12.077  25.384  0.00  0.00    -0.279 N 
ATOM     29  H   UNL     1      -4.433  12.702  24.891  0.00  0.00    +0.152 HD
BRANCH  26  30
ATOM     30  O   UNL     1      -3.306  11.204  23.254  0.00  0.00    -0.444 OA
BRANCH  30  31
ATOM     31  C   UNL     1      -4.701  11.333  22.966  0.00  0.00    +0.292 C 
BRANCH  31  33
ATOM     32  N   UNL     1      -6.261   9.965  24.312  0.00  0.00    -0.131 NA
ATOM     33  C   UNL     1      -5.405  10.069  23.247  0.00  0.00    +0.120 A 
ATOM     34  C   UNL     1      -5.358   8.859  22.587  0.00  0.00    +0.137 A 
ATOM     35  N   UNL     1      -6.213   8.069  23.294  0.00  0.00    -0.251 N 
ATOM     36  N   UNL     1      -6.740   8.730  24.339  0.00  0.00    -0.065 NA
BRANCH  35  37
ATOM     37  C   UNL     1      -6.567   6.686  23.049  0.00  0.00    +0.145 C 
BRANCH  37  38
ATOM     38  C   UNL     1      -7.103   5.999  24.304  0.00  0.00    +0.023 C 
BRANCH  38  39
ATOM     39  C   UNL     1      -6.041   5.153  25.011  0.00  0.00    +0.002 C 
BRANCH  39  40
ATOM     40  C   UNL     1      -5.753   5.732  26.399  0.00  0.00    +0.011 C 
BRANCH  40  41
ATOM     41  C   UNL     1      -4.273   6.030  26.620  0.00  0.00    +0.120 C 
BRANCH  41  42
ATOM     42  C   UNL     1      -3.819   7.206  25.784  0.00  0.00    +0.305 C 
ATOM     43  O   UNL     1      -3.030   7.149  24.854  0.00  0.00    -0.251 OA
BRANCH  42  44
ATOM     44  O   UNL     1      -4.394   8.367  26.172  0.00  0.00    -0.481 OA
ATOM     45  H   UNL     1      -3.763   9.100  26.290  0.00  0.00    +0.295 HD
ENDBRANCH  42  44
ENDBRANCH  41  42
ENDBRANCH  40  41
ENDBRANCH  39  40
ENDBRANCH  38  39
ENDBRANCH  37  38
ENDBRANCH  35  37
ENDBRANCH  31  33
ENDBRANCH  30  31
ENDBRANCH  26  30
ENDBRANCH  25  28
ENDBRANCH   1  25
TORSDOF 20
