REMARK VINA RESULT:    -5.094      4.466     12.237
REMARK INTER + INTRA:         -13.297
REMARK INTER:                 -10.211
REMARK INTRA:                  -3.086
REMARK UNBOUND:                -3.885
REMARK  Name = lig_assembled_79.pdb
REMARK  20 active torsions:
REMARK  status: ('A' for Active; 'I' for Inactive)
REMARK    1  A    between atoms: _2  and  _10
REMARK    2  A    between atoms: _5  and  _26
REMARK    3  A    between atoms: _7  and  _8
REMARK    4  A    between atoms: _7  and  _26
REMARK    5  A    between atoms: _10  and  _11
REMARK    6  A    between atoms: _10  and  _12
REMARK    7  A    between atoms: _10  and  _13
REMARK    8  A    between atoms: _13  and  _14
REMARK    9  A    between atoms: _22  and  _42
REMARK   10  A    between atoms: _24  and  _30
REMARK   11  A    between atoms: _25  and  _29
REMARK   12  A    between atoms: _29  and  _30
REMARK   13  A    between atoms: _32  and  _33
REMARK   14  A    between atoms: _34  and  _35
REMARK   15  A    between atoms: _36  and  _38
REMARK   16  A    between atoms: _38  and  _39
REMARK   17  A    between atoms: _38  and  _40
REMARK   18  A    between atoms: _40  and  _41
REMARK   19  A    between atoms: _40  and  _42
REMARK   20  A    between atoms: _43  and  _45
REMARK                            x       y       z     vdW  Elec       q    Type
REMARK                         _______ _______ _______ _____ _____    ______ ____
ROOT
ATOM      1  C   UNL     1      -7.260  12.127  19.676  0.00  0.00    +0.401 C 
ATOM      2  O   UNL     1      -8.449  12.163  19.998  0.00  0.00    -0.226 OA
ATOM      3  N   UNL     1      -6.800  11.503  18.591  0.00  0.00    -0.279 N 
ATOM      4  H   UNL     1      -5.807  11.538  18.405  0.00  0.00    +0.152 HD
ENDROOT
BRANCH   3   5
ATOM      5  C   UNL     1      -7.654  10.769  17.650  0.00  0.00    +0.141 C 
BRANCH   5   6
ATOM      6  C   UNL     1      -7.000   9.475  17.178  0.00  0.00    +0.163 C 
BRANCH   6   7
ATOM      7  O   UNL     1      -7.215   9.301  15.768  0.00  0.00    -0.388 OA
ATOM      8  H   UNL     1      -8.066   8.882  15.622  0.00  0.00    +0.210 HD
ENDBRANCH   6   7
BRANCH   6   9
ATOM      9  C   UNL     1      -5.497   9.510  17.506  0.00  0.00    +0.175 C 
BRANCH   9  10
ATOM     10  C   UNL     1      -4.650   8.855  16.404  0.00  0.00    +0.176 C 
ATOM     11  O   UNL     1      -3.792   7.862  17.031  0.00  0.00    -0.332 OA
ATOM     12  C   UNL     1      -2.981   7.055  16.114  0.00  0.00    +0.277 C 
ATOM     13  C   UNL     1      -2.138   7.969  15.192  0.00  0.00    +0.110 C 
ATOM     14  C   UNL     1      -3.002   9.061  14.527  0.00  0.00    +0.143 C 
ATOM     15  C   UNL     1      -3.805   9.836  15.572  0.00  0.00    +0.133 C 
BRANCH  15  16
ATOM     16  N   UNL     1      -4.689  10.815  14.920  0.00  0.00    -0.308 N 
ATOM     17  H   UNL     1      -5.257  10.496  14.147  0.00  0.00    +0.149 HD
ATOM     18  C   UNL     1      -4.790  12.097  15.282  0.00  0.00    +0.210 C 
ATOM     19  C   UNL     1      -3.892  12.558  16.445  0.00  0.00    +0.109 C 
ATOM     20  O   UNL     1      -5.550  12.891  14.726  0.00  0.00    -0.276 OA
ENDBRANCH  15  16
BRANCH  12  21
ATOM     21  C   UNL     1      -3.877   6.140  15.254  0.00  0.00    +0.414 C 
ATOM     22  O   UNL     1      -4.815   5.530  15.766  0.00  0.00    -0.240 OA
ATOM     23  O   UNL     1      -3.661   6.010  14.048  0.00  0.00    -0.240 OA
ENDBRANCH  12  21
BRANCH  14  24
ATOM     24  O   UNL     1      -2.164   9.968  13.810  0.00  0.00    -0.390 OA
ATOM     25  H   UNL     1      -2.669  10.384  13.107  0.00  0.00    +0.210 HD
ENDBRANCH  14  24
BRANCH  12  26
ATOM     26  O   UNL     1      -2.076   6.246  16.909  0.00  0.00    -0.343 OA
ATOM     27  C   UNL     1      -0.682   6.326  16.519  0.00  0.00    +0.198 C 
ENDBRANCH  12  26
ENDBRANCH   9  10
BRANCH   9  28
ATOM     28  O   UNL     1      -5.250   8.866  18.771  0.00  0.00    -0.387 OA
ATOM     29  H   UNL     1      -4.494   8.280  18.691  0.00  0.00    +0.210 HD
ENDBRANCH   9  28
ENDBRANCH   6   9
ENDBRANCH   5   6
ENDBRANCH   3   5
BRANCH   1  30
ATOM     30  O   UNL     1      -6.297  12.791  20.499  0.00  0.00    -0.444 OA
BRANCH  30  31
ATOM     31  C   UNL     1      -4.998  12.250  20.246  0.00  0.00    +0.292 C 
BRANCH  31  33
ATOM     32  N   UNL     1      -3.834  10.249  21.100  0.00  0.00    -0.131 NA
ATOM     33  C   UNL     1      -4.599  11.352  21.345  0.00  0.00    +0.120 A 
ATOM     34  C   UNL     1      -4.881  11.415  22.691  0.00  0.00    +0.138 A 
ATOM     35  N   UNL     1      -4.185  10.373  23.238  0.00  0.00    -0.238 N 
ATOM     36  N   UNL     1      -3.624   9.631  22.250  0.00  0.00    -0.064 NA
BRANCH  35  37
ATOM     37  C   UNL     1      -4.135   9.859  24.638  0.00  0.00    +0.122 C 
ATOM     38  C   UNL     1      -3.791   8.354  24.541  0.00  0.00    +0.044 C 
ATOM     39  C   UNL     1      -5.527  10.166  25.224  0.00  0.00    +0.044 C 
BRANCH  37  40
ATOM     40  C   UNL     1      -3.044  10.526  25.499  0.00  0.00    +0.192 C 
ATOM     41  O   UNL     1      -2.067  11.061  24.964  0.00  0.00    -0.289 OA
BRANCH  40  42
ATOM     42  C   UNL     1      -3.094  10.542  26.990  0.00  0.00    +0.045 A 
ATOM     43  C   UNL     1      -3.339  11.735  27.662  0.00  0.00    +0.095 A 
ATOM     44  N   UNL     1      -3.312  11.520  29.006  0.00  0.00    -0.360 N 
ATOM     45  H   UNL     1      -3.451  12.227  29.715  0.00  0.00    +0.165 HD
ATOM     46  C   UNL     1      -3.054  10.198  29.264  0.00  0.00    +0.047 A 
ATOM     47  C   UNL     1      -2.930   9.553  30.503  0.00  0.00    +0.026 A 
ATOM     48  C   UNL     1      -2.657   8.186  30.510  0.00  0.00    +0.002 A 
ATOM     49  C   UNL     1      -2.517   7.491  29.319  0.00  0.00    +0.001 A 
ATOM     50  C   UNL     1      -2.646   8.154  28.092  0.00  0.00    +0.011 A 
ATOM     51  C   UNL     1      -2.918   9.544  28.031  0.00  0.00    +0.010 A 
ENDBRANCH  40  42
ENDBRANCH  37  40
ENDBRANCH  35  37
ENDBRANCH  31  33
ENDBRANCH  30  31
ENDBRANCH   1  30
TORSDOF 16
