REMARK VINA RESULT:    -4.232      2.345      4.535
REMARK INTER + INTRA:         -10.417
REMARK INTER:                  -7.222
REMARK INTRA:                  -3.195
REMARK UNBOUND:                -2.598
REMARK  Name = lig_assembled_67.pdb
REMARK  18 active torsions:
REMARK  status: ('A' for Active; 'I' for Inactive)
REMARK    1  A    between atoms: _2  and  _9
REMARK    2  A    between atoms: _4  and  _19
REMARK    3  A    between atoms: _6  and  _7
REMARK    4  A    between atoms: _6  and  _19
REMARK    5  A    between atoms: _9  and  _10
REMARK    6  A    between atoms: _10  and  _11
REMARK    7  A    between atoms: _15  and  _35
REMARK    8  A    between atoms: _17  and  _23
REMARK    9  A    between atoms: _18  and  _22
REMARK   10  A    between atoms: _22  and  _23
REMARK   11  A    between atoms: _25  and  _26
REMARK   12  A    between atoms: _27  and  _28
REMARK   13  A    between atoms: _29  and  _31
REMARK   14  A    between atoms: _31  and  _32
REMARK   15  A    between atoms: _31  and  _33
REMARK   16  A    between atoms: _33  and  _34
REMARK   17  A    between atoms: _33  and  _35
REMARK   18  A    between atoms: _36  and  _38
REMARK                            x       y       z     vdW  Elec       q    Type
REMARK                         _______ _______ _______ _____ _____    ______ ____
ROOT
ATOM      1  C   UNL     1      -1.944   9.511  27.707  0.00  0.00    +0.163 C 
ENDROOT
BRANCH   1   2
ATOM      2  O   UNL     1      -1.932   9.172  26.311  0.00  0.00    -0.388 OA
ATOM      3  H   UNL     1      -2.257   8.276  26.196  0.00  0.00    +0.210 HD
ENDBRANCH   1   2
BRANCH   1   4
ATOM      4  C   UNL     1      -3.216  10.296  28.072  0.00  0.00    +0.175 C 
BRANCH   4   5
ATOM      5  C   UNL     1      -4.074  10.610  26.838  0.00  0.00    +0.176 C 
ATOM      6  O   UNL     1      -3.435  11.697  26.113  0.00  0.00    -0.332 OA
ATOM      7  C   UNL     1      -4.062  12.065  24.839  0.00  0.00    +0.277 C 
ATOM      8  C   UNL     1      -5.562  12.386  25.048  0.00  0.00    +0.110 C 
ATOM      9  C   UNL     1      -6.278  11.273  25.842  0.00  0.00    +0.143 C 
ATOM     10  C   UNL     1      -5.540  10.969  27.147  0.00  0.00    +0.133 C 
BRANCH  10  11
ATOM     11  N   UNL     1      -6.182   9.848  27.852  0.00  0.00    -0.308 N 
ATOM     12  H   UNL     1      -6.330   8.991  27.339  0.00  0.00    +0.149 HD
ATOM     13  C   UNL     1      -6.581   9.891  29.126  0.00  0.00    +0.210 C 
ATOM     14  C   UNL     1      -6.365  11.221  29.873  0.00  0.00    +0.109 C 
ATOM     15  O   UNL     1      -7.103   8.932  29.696  0.00  0.00    -0.276 OA
ENDBRANCH  10  11
BRANCH   7  16
ATOM     16  C   UNL     1      -3.917  10.925  23.809  0.00  0.00    +0.414 C 
ATOM     17  O   UNL     1      -4.753  10.786  22.917  0.00  0.00    -0.240 OA
ATOM     18  O   UNL     1      -2.965  10.146  23.870  0.00  0.00    -0.240 OA
ENDBRANCH   7  16
BRANCH   9  19
ATOM     19  O   UNL     1      -7.614  11.678  26.142  0.00  0.00    -0.390 OA
ATOM     20  H   UNL     1      -8.233  11.072  25.728  0.00  0.00    +0.210 HD
ENDBRANCH   9  19
BRANCH   7  21
ATOM     21  O   UNL     1      -3.403  13.258  24.343  0.00  0.00    -0.343 OA
ATOM     22  C   UNL     1      -4.216  14.091  23.478  0.00  0.00    +0.198 C 
ENDBRANCH   7  21
ENDBRANCH   4   5
BRANCH   4  23
ATOM     23  O   UNL     1      -2.867  11.516  28.757  0.00  0.00    -0.387 OA
ATOM     24  H   UNL     1      -3.025  11.410  29.698  0.00  0.00    +0.210 HD
ENDBRANCH   4  23
ENDBRANCH   1   4
BRANCH   1  25
ATOM     25  C   UNL     1      -1.869   8.244  28.553  0.00  0.00    +0.141 C 
BRANCH  25  28
ATOM     26  C   UNL     1      -3.565   7.157  29.984  0.00  0.00    +0.401 C 
ATOM     27  O   UNL     1      -3.443   6.052  29.451  0.00  0.00    -0.226 OA
ATOM     28  N   UNL     1      -2.873   8.239  29.623  0.00  0.00    -0.279 N 
ATOM     29  H   UNL     1      -3.050   9.104  30.114  0.00  0.00    +0.152 HD
BRANCH  26  30
ATOM     30  O   UNL     1      -4.501   7.313  31.053  0.00  0.00    -0.444 OA
BRANCH  30  31
ATOM     31  C   UNL     1      -3.800   7.604  32.265  0.00  0.00    +0.292 C 
BRANCH  31  33
ATOM     32  N   UNL     1      -5.218   9.484  33.025  0.00  0.00    -0.131 NA
ATOM     33  C   UNL     1      -3.987   9.018  32.642  0.00  0.00    +0.120 A 
ATOM     34  C   UNL     1      -3.081  10.053  32.686  0.00  0.00    +0.137 A 
ATOM     35  N   UNL     1      -3.821  11.120  33.099  0.00  0.00    -0.251 N 
ATOM     36  N   UNL     1      -5.103  10.776  33.300  0.00  0.00    -0.065 NA
BRANCH  35  37
ATOM     37  C   UNL     1      -3.381  12.476  33.335  0.00  0.00    +0.150 C 
BRANCH  37  38
ATOM     38  C   UNL     1      -2.237  12.916  32.424  0.00  0.00    +0.084 C 
BRANCH  38  39
ATOM     39  C   UNL     1      -2.667  13.976  31.421  0.00  0.00    +0.252 C 
ATOM     40  O   UNL     1      -3.875  13.576  30.765  0.00  0.00    -0.349 OA
ATOM     41  C   UNL     1      -4.501  14.818  30.450  0.00  0.00    +0.191 C 
ATOM     42  C   UNL     1      -4.158  15.688  31.632  0.00  0.00    +0.191 C 
ATOM     43  O   UNL     1      -2.882  15.229  32.079  0.00  0.00    -0.349 OA
ENDBRANCH  38  39
ENDBRANCH  37  38
ENDBRANCH  35  37
ENDBRANCH  31  33
ENDBRANCH  30  31
ENDBRANCH  26  30
ENDBRANCH  25  28
ENDBRANCH   1  25
TORSDOF 16
