REMARK VINA RESULT:    -5.301      2.303      4.586
REMARK INTER + INTRA:         -12.180
REMARK INTER:                  -9.266
REMARK INTRA:                  -2.914
REMARK UNBOUND:                -2.541
REMARK  Name = lig_assembled_23.pdb
REMARK  18 active torsions:
REMARK  status: ('A' for Active; 'I' for Inactive)
REMARK    1  A    between atoms: _2  and  _10
REMARK    2  A    between atoms: _3  and  _41
REMARK    3  A    between atoms: _5  and  _21
REMARK    4  A    between atoms: _7  and  _8
REMARK    5  A    between atoms: _7  and  _21
REMARK    6  A    between atoms: _12  and  _41
REMARK    7  A    between atoms: _17  and  _37
REMARK    8  A    between atoms: _19  and  _25
REMARK    9  A    between atoms: _20  and  _24
REMARK   10  A    between atoms: _24  and  _25
REMARK   11  A    between atoms: _27  and  _28
REMARK   12  A    between atoms: _29  and  _30
REMARK   13  A    between atoms: _31  and  _33
REMARK   14  A    between atoms: _33  and  _34
REMARK   15  A    between atoms: _33  and  _35
REMARK   16  A    between atoms: _35  and  _36
REMARK   17  A    between atoms: _35  and  _37
REMARK   18  A    between atoms: _38  and  _40
REMARK                            x       y       z     vdW  Elec       q    Type
REMARK                         _______ _______ _______ _____ _____    ______ ____
ROOT
ATOM      1  C   UNL     1      -5.448   6.539  22.408  0.00  0.00    +0.141 C 
ENDROOT
BRANCH   1   4
ATOM      2  C   UNL     1      -7.061   7.152  20.640  0.00  0.00    +0.401 C 
ATOM      3  O   UNL     1      -7.850   6.244  20.914  0.00  0.00    -0.226 OA
ATOM      4  N   UNL     1      -5.911   7.360  21.283  0.00  0.00    -0.279 N 
ATOM      5  H   UNL     1      -5.326   8.125  20.978  0.00  0.00    +0.152 HD
BRANCH   2   6
ATOM      6  O   UNL     1      -7.376   8.046  19.569  0.00  0.00    -0.444 OA
BRANCH   6   7
ATOM      7  C   UNL     1      -6.827   9.337  19.846  0.00  0.00    +0.292 C 
BRANCH   7   9
ATOM      8  N   UNL     1      -6.384  11.189  18.269  0.00  0.00    -0.131 NA
ATOM      9  C   UNL     1      -6.185   9.890  18.641  0.00  0.00    +0.121 A 
ATOM     10  C   UNL     1      -5.342   9.288  17.733  0.00  0.00    +0.143 A 
ATOM     11  N   UNL     1      -5.041  10.272  16.821  0.00  0.00    -0.220 N 
ATOM     12  N   UNL     1      -5.690  11.413  17.163  0.00  0.00    -0.060 NA
BRANCH  11  13
ATOM     13  C   UNL     1      -4.211  10.200  15.672  0.00  0.00    +0.069 A 
ATOM     14  C   UNL     1      -3.493   9.023  15.414  0.00  0.00    +0.056 A 
ATOM     15  C   UNL     1      -2.646   8.961  14.302  0.00  0.00    +0.107 A 
ATOM     16  C   UNL     1      -2.525  10.045  13.430  0.00  0.00    +0.028 A 
ATOM     17  C   UNL     1      -3.251  11.209  13.680  0.00  0.00    +0.004 A 
ATOM     18  C   UNL     1      -4.088  11.291  14.799  0.00  0.00    +0.028 A 
BRANCH  15  19
ATOM     19  S   UNL     1      -1.704   7.492  14.024  0.00  0.00    +0.056 S 
ATOM     20  O   UNL     1      -1.272   7.470  12.646  0.00  0.00    -0.153 OA
ATOM     21  O   UNL     1      -0.797   7.290  15.130  0.00  0.00    -0.153 OA
BRANCH  19  22
ATOM     22  N   UNL     1      -2.871   6.295  14.182  0.00  0.00    -0.204 NA
ATOM     23  H   UNL     1      -3.449   6.258  13.343  0.00  0.00    +0.144 HD
ATOM     24  H   UNL     1      -3.398   6.433  15.045  0.00  0.00    +0.144 HD
ENDBRANCH  19  22
ENDBRANCH  15  19
ENDBRANCH  11  13
ENDBRANCH   7   9
ENDBRANCH   6   7
ENDBRANCH   2   6
ENDBRANCH   1   4
BRANCH   1  25
ATOM     25  C   UNL     1      -5.161   7.382  23.646  0.00  0.00    +0.163 C 
BRANCH  25  26
ATOM     26  O   UNL     1      -3.941   6.944  24.268  0.00  0.00    -0.388 OA
ATOM     27  H   UNL     1      -3.934   7.217  25.188  0.00  0.00    +0.210 HD
ENDBRANCH  25  26
BRANCH  25  28
ATOM     28  C   UNL     1      -5.073   8.866  23.249  0.00  0.00    +0.175 C 
BRANCH  28  29
ATOM     29  C   UNL     1      -4.004   9.618  24.056  0.00  0.00    +0.176 C 
ATOM     30  O   UNL     1      -4.381   9.562  25.459  0.00  0.00    -0.332 OA
ATOM     31  C   UNL     1      -3.417  10.141  26.398  0.00  0.00    +0.277 C 
ATOM     32  C   UNL     1      -3.087  11.602  26.003  0.00  0.00    +0.110 C 
ATOM     33  C   UNL     1      -2.710  11.717  24.511  0.00  0.00    +0.143 C 
ATOM     34  C   UNL     1      -3.781  11.080  23.624  0.00  0.00    +0.133 C 
BRANCH  34  35
ATOM     35  N   UNL     1      -3.370  11.118  22.212  0.00  0.00    -0.308 N 
ATOM     36  H   UNL     1      -2.529  10.622  21.952  0.00  0.00    +0.149 HD
ATOM     37  C   UNL     1      -4.035  11.766  21.252  0.00  0.00    +0.210 C 
ATOM     38  C   UNL     1      -5.298  12.534  21.686  0.00  0.00    +0.109 C 
ATOM     39  O   UNL     1      -3.676  11.768  20.074  0.00  0.00    -0.276 OA
ENDBRANCH  34  35
BRANCH  31  40
ATOM     40  C   UNL     1      -2.117   9.310  26.431  0.00  0.00    +0.414 C 
ATOM     41  O   UNL     1      -2.166   8.081  26.395  0.00  0.00    -0.240 OA
ATOM     42  O   UNL     1      -1.021   9.868  26.493  0.00  0.00    -0.240 OA
ENDBRANCH  31  40
BRANCH  33  43
ATOM     43  O   UNL     1      -2.563  13.092  24.156  0.00  0.00    -0.390 OA
ATOM     44  H   UNL     1      -3.013  13.259  23.325  0.00  0.00    +0.210 HD
ENDBRANCH  33  43
BRANCH  31  45
ATOM     45  O   UNL     1      -4.024  10.150  27.716  0.00  0.00    -0.343 OA
ATOM     46  C   UNL     1      -3.651  11.273  28.555  0.00  0.00    +0.198 C 
ENDBRANCH  31  45
ENDBRANCH  28  29
BRANCH  28  47
ATOM     47  O   UNL     1      -6.356   9.501  23.412  0.00  0.00    -0.387 OA
ATOM     48  H   UNL     1      -6.920   8.949  23.960  0.00  0.00    +0.210 HD
ENDBRANCH  28  47
ENDBRANCH  25  28
ENDBRANCH   1  25
TORSDOF 16
