REMARK VINA RESULT:    -4.326      2.031      7.767
REMARK INTER + INTRA:         -10.802
REMARK INTER:                  -7.814
REMARK INTRA:                  -2.988
REMARK UNBOUND:                -2.934
REMARK  Name = lig_assembled_72.pdb
REMARK  20 active torsions:
REMARK  status: ('A' for Active; 'I' for Inactive)
REMARK    1  A    between atoms: _2  and  _9
REMARK    2  A    between atoms: _4  and  _17
REMARK    3  A    between atoms: _5  and  _9
REMARK    4  A    between atoms: _5  and  _12
REMARK    5  A    between atoms: _6  and  _7
REMARK    6  A    between atoms: _6  and  _17
REMARK    7  A    between atoms: _9  and  _10
REMARK    8  A    between atoms: _9  and  _11
REMARK    9  A    between atoms: _13  and  _33
REMARK   10  A    between atoms: _15  and  _21
REMARK   11  A    between atoms: _16  and  _20
REMARK   12  A    between atoms: _20  and  _21
REMARK   13  A    between atoms: _23  and  _24
REMARK   14  A    between atoms: _25  and  _26
REMARK   15  A    between atoms: _27  and  _29
REMARK   16  A    between atoms: _29  and  _30
REMARK   17  A    between atoms: _29  and  _31
REMARK   18  A    between atoms: _31  and  _32
REMARK   19  A    between atoms: _31  and  _33
REMARK   20  A    between atoms: _34  and  _36
REMARK                            x       y       z     vdW  Elec       q    Type
REMARK                         _______ _______ _______ _____ _____    ______ ____
ROOT
ATOM      1  C   UNL     1      -5.751   8.315  25.019  0.00  0.00    +0.163 C 
ENDROOT
BRANCH   1   2
ATOM      2  O   UNL     1      -5.854   8.989  26.285  0.00  0.00    -0.388 OA
ATOM      3  H   UNL     1      -6.779   9.145  26.490  0.00  0.00    +0.210 HD
ENDBRANCH   1   2
BRANCH   1   4
ATOM      4  C   UNL     1      -5.992   9.291  23.855  0.00  0.00    +0.175 C 
BRANCH   4   5
ATOM      5  C   UNL     1      -4.972  10.439  23.843  0.00  0.00    +0.176 C 
ATOM      6  O   UNL     1      -5.313  11.351  24.924  0.00  0.00    -0.332 OA
ATOM      7  C   UNL     1      -4.379  12.462  25.134  0.00  0.00    +0.277 C 
ATOM      8  C   UNL     1      -4.181  13.258  23.821  0.00  0.00    +0.110 C 
ATOM      9  C   UNL     1      -3.849  12.327  22.635  0.00  0.00    +0.143 C 
ATOM     10  C   UNL     1      -4.882  11.207  22.511  0.00  0.00    +0.133 C 
BRANCH  10  11
ATOM     11  N   UNL     1      -4.507  10.278  21.433  0.00  0.00    -0.308 N 
ATOM     12  H   UNL     1      -3.643   9.764  21.533  0.00  0.00    +0.149 HD
ATOM     13  C   UNL     1      -5.233  10.070  20.332  0.00  0.00    +0.210 C 
ATOM     14  C   UNL     1      -6.531  10.888  20.197  0.00  0.00    +0.109 C 
ATOM     15  O   UNL     1      -4.902   9.274  19.452  0.00  0.00    -0.276 OA
ENDBRANCH  10  11
BRANCH   7  16
ATOM     16  C   UNL     1      -3.015  11.943  25.633  0.00  0.00    +0.414 C 
ATOM     17  O   UNL     1      -1.970  12.424  25.196  0.00  0.00    -0.240 OA
ATOM     18  O   UNL     1      -2.958  11.043  26.472  0.00  0.00    -0.240 OA
ENDBRANCH   7  16
BRANCH   9  19
ATOM     19  O   UNL     1      -3.825  13.082  21.423  0.00  0.00    -0.390 OA
ATOM     20  H   UNL     1      -4.568  13.690  21.409  0.00  0.00    +0.210 HD
ENDBRANCH   9  19
BRANCH   7  21
ATOM     21  O   UNL     1      -4.956  13.351  26.125  0.00  0.00    -0.343 OA
ATOM     22  C   UNL     1      -6.150  14.052  25.698  0.00  0.00    +0.198 C 
ENDBRANCH   7  21
ENDBRANCH   4   5
BRANCH   4  23
ATOM     23  O   UNL     1      -7.332   9.818  23.918  0.00  0.00    -0.387 OA
ATOM     24  H   UNL     1      -7.807   9.400  24.641  0.00  0.00    +0.210 HD
ENDBRANCH   4  23
ENDBRANCH   1   4
BRANCH   1  25
ATOM     25  C   UNL     1      -4.371   7.682  24.876  0.00  0.00    +0.141 C 
BRANCH  25  28
ATOM     26  C   UNL     1      -2.548   7.306  26.502  0.00  0.00    +0.401 C 
ATOM     27  O   UNL     1      -2.380   6.127  26.183  0.00  0.00    -0.226 OA
ATOM     28  N   UNL     1      -3.461   8.105  25.948  0.00  0.00    -0.279 N 
ATOM     29  H   UNL     1      -3.530   9.056  26.284  0.00  0.00    +0.152 HD
BRANCH  26  30
ATOM     30  O   UNL     1      -1.730   7.871  27.530  0.00  0.00    -0.444 OA
BRANCH  30  31
ATOM     31  C   UNL     1      -2.318   7.609  28.807  0.00  0.00    +0.292 C 
BRANCH  31  33
ATOM     32  N   UNL     1      -4.310   9.073  28.866  0.00  0.00    -0.131 NA
ATOM     33  C   UNL     1      -3.040   8.798  29.293  0.00  0.00    +0.120 A 
ATOM     34  C   UNL     1      -2.643   9.777  30.179  0.00  0.00    +0.137 A 
ATOM     35  N   UNL     1      -3.716  10.622  30.252  0.00  0.00    -0.244 N 
ATOM     36  N   UNL     1      -4.713  10.187  29.456  0.00  0.00    -0.065 NA
BRANCH  35  37
ATOM     37  C   UNL     1      -3.858  11.845  31.055  0.00  0.00    +0.083 C 
ATOM     38  C   UNL     1      -5.216  11.819  31.781  0.00  0.00    +0.038 C 
ATOM     39  C   UNL     1      -3.791  13.079  30.134  0.00  0.00    +0.038 C 
BRANCH  37  40
ATOM     40  C   UNL     1      -2.746  11.954  32.134  0.00  0.00    +0.185 C 
BRANCH  40  41
ATOM     41  O   UNL     1      -1.804  12.988  31.852  0.00  0.00    -0.393 OA
ATOM     42  H   UNL     1      -1.002  12.537  31.510  0.00  0.00    +0.209 HD
ENDBRANCH  40  41
ENDBRANCH  37  40
ENDBRANCH  35  37
ENDBRANCH  31  33
ENDBRANCH  30  31
ENDBRANCH  26  30
ENDBRANCH  25  28
ENDBRANCH   1  25
TORSDOF 16
