REMARK VINA RESULT:    -3.811      2.419      5.973
REMARK INTER + INTRA:         -10.931
REMARK INTER:                  -8.185
REMARK INTRA:                  -2.746
REMARK UNBOUND:                -3.890
REMARK  Name = lig_assembled_66.pdb
REMARK  18 active torsions:
REMARK  status: ('A' for Active; 'I' for Inactive)
REMARK    1  A    between atoms: _2  and  _10
REMARK    2  A    between atoms: _5  and  _21
REMARK    3  A    between atoms: _7  and  _8
REMARK    4  A    between atoms: _7  and  _21
REMARK    5  A    between atoms: _10  and  _11
REMARK    6  A    between atoms: _15  and  _16
REMARK    7  A    between atoms: _17  and  _37
REMARK    8  A    between atoms: _19  and  _25
REMARK    9  A    between atoms: _20  and  _24
REMARK   10  A    between atoms: _24  and  _25
REMARK   11  A    between atoms: _27  and  _28
REMARK   12  A    between atoms: _29  and  _30
REMARK   13  A    between atoms: _31  and  _33
REMARK   14  A    between atoms: _33  and  _34
REMARK   15  A    between atoms: _33  and  _35
REMARK   16  A    between atoms: _35  and  _36
REMARK   17  A    between atoms: _35  and  _37
REMARK   18  A    between atoms: _38  and  _40
REMARK                            x       y       z     vdW  Elec       q    Type
REMARK                         _______ _______ _______ _____ _____    ______ ____
ROOT
ATOM      1  C   UNL     1      -4.462  11.680  27.326  0.00  0.00    +0.163 C 
ENDROOT
BRANCH   1   2
ATOM      2  O   UNL     1      -5.613  12.395  26.849  0.00  0.00    -0.388 OA
ATOM      3  H   UNL     1      -6.316  11.773  26.646  0.00  0.00    +0.210 HD
ENDBRANCH   1   2
BRANCH   1   4
ATOM      4  C   UNL     1      -3.294  11.790  26.330  0.00  0.00    +0.175 C 
BRANCH   4   5
ATOM      5  C   UNL     1      -3.553  10.991  25.044  0.00  0.00    +0.176 C 
ATOM      6  O   UNL     1      -4.520  11.728  24.247  0.00  0.00    -0.332 OA
ATOM      7  C   UNL     1      -4.813  11.165  22.925  0.00  0.00    +0.277 C 
ATOM      8  C   UNL     1      -5.257   9.687  23.053  0.00  0.00    +0.110 C 
ATOM      9  C   UNL     1      -4.276   8.870  23.920  0.00  0.00    +0.143 C 
ATOM     10  C   UNL     1      -4.042   9.548  25.270  0.00  0.00    +0.133 C 
BRANCH  10  11
ATOM     11  N   UNL     1      -3.039   8.807  26.051  0.00  0.00    -0.308 N 
ATOM     12  H   UNL     1      -2.075   8.859  25.753  0.00  0.00    +0.149 HD
ATOM     13  C   UNL     1      -3.320   8.069  27.129  0.00  0.00    +0.210 C 
ATOM     14  C   UNL     1      -4.801   7.988  27.543  0.00  0.00    +0.109 C 
ATOM     15  O   UNL     1      -2.457   7.470  27.773  0.00  0.00    -0.276 OA
ENDBRANCH  10  11
BRANCH   7  16
ATOM     16  C   UNL     1      -3.576  11.254  22.007  0.00  0.00    +0.414 C 
ATOM     17  O   UNL     1      -3.129  10.242  21.469  0.00  0.00    -0.240 OA
ATOM     18  O   UNL     1      -3.026  12.337  21.804  0.00  0.00    -0.240 OA
ENDBRANCH   7  16
BRANCH   7  19
ATOM     19  O   UNL     1      -5.906  11.923  22.346  0.00  0.00    -0.343 OA
ATOM     20  C   UNL     1      -6.359  11.453  21.052  0.00  0.00    +0.198 C 
ENDBRANCH   7  19
BRANCH   9  21
ATOM     21  O   UNL     1      -4.801   7.560  24.136  0.00  0.00    -0.390 OA
ATOM     22  H   UNL     1      -4.914   7.117  23.292  0.00  0.00    +0.210 HD
ENDBRANCH   9  21
ENDBRANCH   4   5
BRANCH   4  23
ATOM     23  O   UNL     1      -2.070  11.350  26.950  0.00  0.00    -0.387 OA
ATOM     24  H   UNL     1      -1.601  12.108  27.307  0.00  0.00    +0.210 HD
ENDBRANCH   4  23
ENDBRANCH   1   4
BRANCH   1  25
ATOM     25  C   UNL     1      -4.030  12.230  28.681  0.00  0.00    +0.141 C 
BRANCH  25  28
ATOM     26  C   UNL     1      -3.920  10.288  30.205  0.00  0.00    +0.401 C 
ATOM     27  O   UNL     1      -5.144  10.172  30.298  0.00  0.00    -0.226 OA
ATOM     28  N   UNL     1      -3.313  11.226  29.476  0.00  0.00    -0.279 N 
ATOM     29  H   UNL     1      -2.303  11.247  29.470  0.00  0.00    +0.152 HD
BRANCH  26  30
ATOM     30  O   UNL     1      -3.079   9.376  30.917  0.00  0.00    -0.444 OA
BRANCH  30  31
ATOM     31  C   UNL     1      -3.268   9.552  32.324  0.00  0.00    +0.292 C 
BRANCH  31  33
ATOM     32  N   UNL     1      -1.992  11.673  32.198  0.00  0.00    -0.131 NA
ATOM     33  C   UNL     1      -3.051  10.963  32.699  0.00  0.00    +0.120 A 
ATOM     34  C   UNL     1      -3.805  11.788  33.504  0.00  0.00    +0.137 A 
ATOM     35  N   UNL     1      -3.185  13.001  33.406  0.00  0.00    -0.247 N 
ATOM     36  N   UNL     1      -2.084  12.922  32.635  0.00  0.00    -0.065 NA
BRANCH  35  37
ATOM     37  C   UNL     1      -3.715  14.294  33.795  0.00  0.00    +0.180 C 
BRANCH  37  38
ATOM     38  C   UNL     1      -4.183  15.124  32.627  0.00  0.00    -0.025 A 
ATOM     39  C   UNL     1      -3.726  16.440  32.464  0.00  0.00    +0.005 A 
ATOM     40  C   UNL     1      -4.089  17.187  31.341  0.00  0.00    +0.002 A 
ATOM     41  C   UNL     1      -4.930  16.634  30.375  0.00  0.00    +0.019 A 
ATOM     42  C   UNL     1      -5.423  15.337  30.540  0.00  0.00    +0.052 A 
ATOM     43  C   UNL     1      -5.049  14.585  31.662  0.00  0.00    +0.024 A 
BRANCH  42  44
ATOM     44  C   UNL     1      -6.302  14.772  29.558  0.00  0.00    +0.099 C 
ATOM     45  N   UNL     1      -7.020  14.317  28.767  0.00  0.00    -0.191 NA
ENDBRANCH  42  44
ENDBRANCH  37  38
ENDBRANCH  35  37
ENDBRANCH  31  33
ENDBRANCH  30  31
ENDBRANCH  26  30
ENDBRANCH  25  28
ENDBRANCH   1  25
TORSDOF 16
