REMARK VINA RESULT:    -5.067      3.608     11.809
REMARK INTER + INTRA:         -11.754
REMARK INTER:                  -9.213
REMARK INTRA:                  -2.541
REMARK UNBOUND:                -2.541
REMARK  Name = lig_assembled_23.pdb
REMARK  18 active torsions:
REMARK  status: ('A' for Active; 'I' for Inactive)
REMARK    1  A    between atoms: _2  and  _10
REMARK    2  A    between atoms: _3  and  _41
REMARK    3  A    between atoms: _5  and  _21
REMARK    4  A    between atoms: _7  and  _8
REMARK    5  A    between atoms: _7  and  _21
REMARK    6  A    between atoms: _12  and  _41
REMARK    7  A    between atoms: _17  and  _37
REMARK    8  A    between atoms: _19  and  _25
REMARK    9  A    between atoms: _20  and  _24
REMARK   10  A    between atoms: _24  and  _25
REMARK   11  A    between atoms: _27  and  _28
REMARK   12  A    between atoms: _29  and  _30
REMARK   13  A    between atoms: _31  and  _33
REMARK   14  A    between atoms: _33  and  _34
REMARK   15  A    between atoms: _33  and  _35
REMARK   16  A    between atoms: _35  and  _36
REMARK   17  A    between atoms: _35  and  _37
REMARK   18  A    between atoms: _38  and  _40
REMARK                            x       y       z     vdW  Elec       q    Type
REMARK                         _______ _______ _______ _____ _____    ______ ____
ROOT
ATOM      1  C   UNL     1      -6.454  11.845  14.385  0.00  0.00    +0.141 C 
ENDROOT
BRANCH   1   4
ATOM      2  C   UNL     1      -4.793  12.302  16.156  0.00  0.00    +0.401 C 
ATOM      3  O   UNL     1      -4.055  12.965  15.424  0.00  0.00    -0.226 OA
ATOM      4  N   UNL     1      -5.931  11.736  15.752  0.00  0.00    -0.279 N 
ATOM      5  H   UNL     1      -6.463  11.202  16.425  0.00  0.00    +0.152 HD
BRANCH   2   6
ATOM      6  O   UNL     1      -4.424  12.110  17.524  0.00  0.00    -0.444 OA
BRANCH   6   7
ATOM      7  C   UNL     1      -4.967  10.875  17.997  0.00  0.00    +0.292 C 
BRANCH   7   9
ATOM      8  N   UNL     1      -4.768   9.458  20.014  0.00  0.00    -0.131 NA
ATOM      9  C   UNL     1      -4.631  10.679  19.419  0.00  0.00    +0.121 A 
ATOM     10  C   UNL     1      -4.160  11.580  20.348  0.00  0.00    +0.143 A 
ATOM     11  N   UNL     1      -4.013  10.853  21.506  0.00  0.00    -0.220 N 
ATOM     12  N   UNL     1      -4.395   9.572  21.281  0.00  0.00    -0.060 NA
BRANCH  11  13
ATOM     13  C   UNL     1      -3.558  11.286  22.778  0.00  0.00    +0.069 A 
ATOM     14  C   UNL     1      -3.406  10.349  23.811  0.00  0.00    +0.056 A 
ATOM     15  C   UNL     1      -2.992  10.777  25.077  0.00  0.00    +0.107 A 
ATOM     16  C   UNL     1      -2.700  12.121  25.320  0.00  0.00    +0.028 A 
ATOM     17  C   UNL     1      -2.837  13.048  24.288  0.00  0.00    +0.004 A 
ATOM     18  C   UNL     1      -3.268  12.636  23.022  0.00  0.00    +0.028 A 
BRANCH  15  19
ATOM     19  S   UNL     1      -2.862   9.593  26.382  0.00  0.00    +0.056 S 
ATOM     20  O   UNL     1      -1.563   9.721  27.000  0.00  0.00    -0.153 OA
ATOM     21  O   UNL     1      -4.091   9.584  27.142  0.00  0.00    -0.153 OA
BRANCH  19  22
ATOM     22  N   UNL     1      -2.851   8.142  25.537  0.00  0.00    -0.204 NA
ATOM     23  H   UNL     1      -3.805   7.862  25.313  0.00  0.00    +0.144 HD
ATOM     24  H   UNL     1      -2.322   7.439  26.055  0.00  0.00    +0.144 HD
ENDBRANCH  19  22
ENDBRANCH  15  19
ENDBRANCH  11  13
ENDBRANCH   7   9
ENDBRANCH   6   7
ENDBRANCH   2   6
ENDBRANCH   1   4
BRANCH   1  25
ATOM     25  C   UNL     1      -5.878  10.770  13.468  0.00  0.00    +0.163 C 
BRANCH  25  26
ATOM     26  O   UNL     1      -4.493  11.044  13.199  0.00  0.00    -0.388 OA
ATOM     27  H   UNL     1      -4.426  11.732  12.532  0.00  0.00    +0.210 HD
ENDBRANCH  25  26
BRANCH  25  28
ATOM     28  C   UNL     1      -6.047   9.389  14.125  0.00  0.00    +0.175 C 
BRANCH  28  29
ATOM     29  C   UNL     1      -4.732   8.597  14.152  0.00  0.00    +0.176 C 
ATOM     30  O   UNL     1      -4.313   8.380  12.777  0.00  0.00    -0.332 OA
ATOM     31  C   UNL     1      -3.012   7.725  12.607  0.00  0.00    +0.277 C 
ATOM     32  C   UNL     1      -2.974   6.386  13.384  0.00  0.00    +0.110 C 
ATOM     33  C   UNL     1      -3.443   6.561  14.844  0.00  0.00    +0.143 C 
ATOM     34  C   UNL     1      -4.804   7.254  14.903  0.00  0.00    +0.133 C 
BRANCH  34  35
ATOM     35  N   UNL     1      -5.200   7.493  16.300  0.00  0.00    -0.308 N 
ATOM     36  H   UNL     1      -4.601   8.077  16.867  0.00  0.00    +0.149 HD
ATOM     37  C   UNL     1      -6.299   6.989  16.868  0.00  0.00    +0.210 C 
ATOM     38  C   UNL     1      -7.177   6.082  15.986  0.00  0.00    +0.109 C 
ATOM     39  O   UNL     1      -6.613   7.218  18.037  0.00  0.00    -0.276 OA
ENDBRANCH  34  35
BRANCH  31  40
ATOM     40  C   UNL     1      -1.871   8.639  13.100  0.00  0.00    +0.414 C 
ATOM     41  O   UNL     1      -0.850   8.151  13.584  0.00  0.00    -0.240 OA
ATOM     42  O   UNL     1      -1.971   9.864  13.015  0.00  0.00    -0.240 OA
ENDBRANCH  31  40
BRANCH  33  43
ATOM     43  O   UNL     1      -3.537   5.284  15.476  0.00  0.00    -0.390 OA
ATOM     44  H   UNL     1      -2.718   4.800  15.345  0.00  0.00    +0.210 HD
ENDBRANCH  33  43
BRANCH  31  45
ATOM     45  O   UNL     1      -2.834   7.440  11.196  0.00  0.00    -0.343 OA
ATOM     46  C   UNL     1      -4.030   7.579  10.387  0.00  0.00    +0.198 C 
ENDBRANCH  31  45
ENDBRANCH  28  29
BRANCH  28  47
ATOM     47  O   UNL     1      -7.068   8.636  13.440  0.00  0.00    -0.387 OA
ATOM     48  H   UNL     1      -7.743   8.367  14.067  0.00  0.00    +0.210 HD
ENDBRANCH  28  47
ENDBRANCH  25  28
ENDBRANCH   1  25
TORSDOF 16
