REMARK VINA RESULT:    -4.770      3.374      6.557
REMARK INTER + INTRA:         -11.501
REMARK INTER:                  -9.519
REMARK INTRA:                  -1.982
REMARK UNBOUND:                -2.966
REMARK  Name = lig_assembled_89.pdb
REMARK  19 active torsions:
REMARK  status: ('A' for Active; 'I' for Inactive)
REMARK    1  A    between atoms: _2  and  _12
REMARK    2  A    between atoms: _5  and  _20
REMARK    3  A    between atoms: _7  and  _29
REMARK    4  A    between atoms: _9  and  _10
REMARK    5  A    between atoms: _9  and  _29
REMARK    6  A    between atoms: _20  and  _21
REMARK    7  A    between atoms: _20  and  _22
REMARK    8  A    between atoms: _25  and  _45
REMARK    9  A    between atoms: _27  and  _33
REMARK   10  A    between atoms: _28  and  _32
REMARK   11  A    between atoms: _32  and  _33
REMARK   12  A    between atoms: _35  and  _36
REMARK   13  A    between atoms: _37  and  _38
REMARK   14  A    between atoms: _39  and  _41
REMARK   15  A    between atoms: _41  and  _42
REMARK   16  A    between atoms: _41  and  _43
REMARK   17  A    between atoms: _43  and  _44
REMARK   18  A    between atoms: _43  and  _45
REMARK   19  A    between atoms: _46  and  _48
REMARK                            x       y       z     vdW  Elec       q    Type
REMARK                         _______ _______ _______ _____ _____    ______ ____
ROOT
ATOM      1  C   UNL     1      -5.283  12.988  21.336  0.00  0.00    +0.401 C 
ATOM      2  O   UNL     1      -6.278  13.439  21.908  0.00  0.00    -0.226 OA
ATOM      3  N   UNL     1      -5.332  12.089  20.352  0.00  0.00    -0.279 N 
ATOM      4  H   UNL     1      -4.462  11.786  19.938  0.00  0.00    +0.152 HD
ENDROOT
BRANCH   3   5
ATOM      5  C   UNL     1      -6.581  11.514  19.835  0.00  0.00    +0.141 C 
BRANCH   5   6
ATOM      6  C   UNL     1      -6.426  11.013  18.403  0.00  0.00    +0.163 C 
BRANCH   6   7
ATOM      7  O   UNL     1      -6.637  12.093  17.479  0.00  0.00    -0.388 OA
ATOM      8  H   UNL     1      -5.970  12.769  17.619  0.00  0.00    +0.210 HD
ENDBRANCH   6   7
BRANCH   6   9
ATOM      9  C   UNL     1      -5.028  10.399  18.222  0.00  0.00    +0.175 C 
BRANCH   9  10
ATOM     10  C   UNL     1      -4.832   9.811  16.817  0.00  0.00    +0.176 C 
ATOM     11  O   UNL     1      -4.729  10.918  15.879  0.00  0.00    -0.332 OA
ATOM     12  C   UNL     1      -4.433  10.548  14.492  0.00  0.00    +0.277 C 
ATOM     13  C   UNL     1      -5.466   9.518  13.974  0.00  0.00    +0.110 C 
ATOM     14  C   UNL     1      -5.634   8.337  14.953  0.00  0.00    +0.143 C 
ATOM     15  C   UNL     1      -5.936   8.836  16.367  0.00  0.00    +0.133 C 
BRANCH  15  16
ATOM     16  N   UNL     1      -6.007   7.706  17.307  0.00  0.00    -0.308 N 
ATOM     17  H   UNL     1      -5.152   7.209  17.513  0.00  0.00    +0.149 HD
ATOM     18  C   UNL     1      -7.128   7.295  17.907  0.00  0.00    +0.210 C 
ATOM     19  C   UNL     1      -8.419   8.057  17.552  0.00  0.00    +0.109 C 
ATOM     20  O   UNL     1      -7.155   6.355  18.701  0.00  0.00    -0.276 OA
ENDBRANCH  15  16
BRANCH  12  21
ATOM     21  C   UNL     1      -3.013   9.957  14.375  0.00  0.00    +0.414 C 
ATOM     22  O   UNL     1      -2.733   9.193  13.452  0.00  0.00    -0.240 OA
ATOM     23  O   UNL     1      -2.147  10.245  15.202  0.00  0.00    -0.240 OA
ENDBRANCH  12  21
BRANCH  14  24
ATOM     24  O   UNL     1      -6.699   7.494  14.514  0.00  0.00    -0.390 OA
ATOM     25  H   UNL     1      -7.058   7.834  13.691  0.00  0.00    +0.210 HD
ENDBRANCH  14  24
BRANCH  12  26
ATOM     26  O   UNL     1      -4.533  11.745  13.678  0.00  0.00    -0.343 OA
ATOM     27  C   UNL     1      -4.476  12.993  14.414  0.00  0.00    +0.198 C 
ENDBRANCH  12  26
ENDBRANCH   9  10
BRANCH   9  28
ATOM     28  O   UNL     1      -4.797   9.385  19.221  0.00  0.00    -0.387 OA
ATOM     29  H   UNL     1      -5.568   9.315  19.790  0.00  0.00    +0.210 HD
ENDBRANCH   9  28
ENDBRANCH   6   9
ENDBRANCH   5   6
ENDBRANCH   3   5
BRANCH   1  30
ATOM     30  O   UNL     1      -3.988  13.444  21.733  0.00  0.00    -0.444 OA
BRANCH  30  31
ATOM     31  C   UNL     1      -3.047  12.373  21.617  0.00  0.00    +0.292 C 
BRANCH  31  33
ATOM     32  N   UNL     1      -3.481  10.203  22.703  0.00  0.00    -0.131 NA
ATOM     33  C   UNL     1      -3.109  11.510  22.809  0.00  0.00    +0.121 A 
ATOM     34  C   UNL     1      -2.818  11.788  24.122  0.00  0.00    +0.145 A 
ATOM     35  N   UNL     1      -3.003  10.595  24.795  0.00  0.00    -0.199 N 
ATOM     36  N   UNL     1      -3.406   9.656  23.908  0.00  0.00    -0.059 NA
BRANCH  35  37
ATOM     37  C   UNL     1      -2.721  10.364  26.173  0.00  0.00    +0.186 A 
ATOM     38  C   UNL     1      -3.343  10.866  27.298  0.00  0.00    +0.158 A 
ATOM     39  C   UNL     1      -4.360  11.852  27.497  0.00  0.00    +0.280 A 
ATOM     40  O   UNL     1      -4.630  12.695  26.652  0.00  0.00    -0.265 OA
ATOM     41  N   UNL     1      -5.006  11.804  28.749  0.00  0.00    -0.302 N 
ATOM     42  C   UNL     1      -4.373  11.144  29.869  0.00  0.00    +0.069 A 
ATOM     43  C   UNL     1      -4.819  11.295  31.189  0.00  0.00    +0.028 A 
ATOM     44  C   UNL     1      -4.150  10.680  32.257  0.00  0.00    +0.002 A 
ATOM     45  C   UNL     1      -3.027   9.893  32.028  0.00  0.00    +0.002 A 
ATOM     46  C   UNL     1      -2.565   9.710  30.729  0.00  0.00    +0.028 A 
ATOM     47  C   UNL     1      -3.229  10.340  29.666  0.00  0.00    +0.072 A 
ATOM     48  N   UNL     1      -2.783  10.183  28.344  0.00  0.00    -0.291 N 
ATOM     49  C   UNL     1      -1.785   9.394  27.831  0.00  0.00    +0.207 A 
ATOM     50  N   UNL     1      -1.725   9.469  26.518  0.00  0.00    -0.216 NA
BRANCH  41  51
ATOM     51  C   UNL     1      -6.231  12.619  28.929  0.00  0.00    +0.085 C 
ATOM     52  C   UNL     1      -7.328  12.326  27.886  0.00  0.00    +0.030 C 
ATOM     53  C   UNL     1      -5.918  14.114  28.970  0.00  0.00    +0.030 C 
ENDBRANCH  41  51
ENDBRANCH  35  37
ENDBRANCH  31  33
ENDBRANCH  30  31
ENDBRANCH   1  30
TORSDOF 15
