REMARK VINA RESULT:    -5.374      2.806      5.140
REMARK INTER + INTRA:         -13.037
REMARK INTER:                  -9.510
REMARK INTRA:                  -3.527
REMARK UNBOUND:                -3.108
REMARK  Name = lig_assembled_58.pdb
REMARK  18 active torsions:
REMARK  status: ('A' for Active; 'I' for Inactive)
REMARK    1  A    between atoms: _2  and  _9
REMARK    2  A    between atoms: _4  and  _25
REMARK    3  A    between atoms: _6  and  _7
REMARK    4  A    between atoms: _6  and  _25
REMARK    5  A    between atoms: _9  and  _10
REMARK    6  A    between atoms: _9  and  _16
REMARK    7  A    between atoms: _21  and  _41
REMARK    8  A    between atoms: _23  and  _29
REMARK    9  A    between atoms: _24  and  _28
REMARK   10  A    between atoms: _28  and  _29
REMARK   11  A    between atoms: _31  and  _32
REMARK   12  A    between atoms: _33  and  _34
REMARK   13  A    between atoms: _35  and  _37
REMARK   14  A    between atoms: _37  and  _38
REMARK   15  A    between atoms: _37  and  _39
REMARK   16  A    between atoms: _39  and  _40
REMARK   17  A    between atoms: _39  and  _41
REMARK   18  A    between atoms: _42  and  _44
REMARK                            x       y       z     vdW  Elec       q    Type
REMARK                         _______ _______ _______ _____ _____    ______ ____
ROOT
ATOM      1  C   UNL     1      -5.998   6.396  21.808  0.00  0.00    +0.141 C 
ENDROOT
BRANCH   1   4
ATOM      2  C   UNL     1      -3.779   6.200  22.876  0.00  0.00    +0.401 C 
ATOM      3  O   UNL     1      -3.272   5.595  21.929  0.00  0.00    -0.226 OA
ATOM      4  N   UNL     1      -5.049   6.607  22.907  0.00  0.00    -0.279 N 
ATOM      5  H   UNL     1      -5.376   7.088  23.733  0.00  0.00    +0.152 HD
BRANCH   2   6
ATOM      6  O   UNL     1      -2.977   6.490  24.024  0.00  0.00    -0.444 OA
BRANCH   6   7
ATOM      7  C   UNL     1      -3.826   6.785  25.137  0.00  0.00    +0.292 C 
BRANCH   7   9
ATOM      8  N   UNL     1      -1.963   8.013  26.234  0.00  0.00    -0.131 NA
ATOM      9  C   UNL     1      -3.289   7.927  25.901  0.00  0.00    +0.120 A 
ATOM     10  C   UNL     1      -3.937   9.051  26.358  0.00  0.00    +0.138 A 
ATOM     11  N   UNL     1      -2.933   9.856  26.821  0.00  0.00    -0.240 N 
ATOM     12  N   UNL     1      -1.757   9.188  26.816  0.00  0.00    -0.064 NA
BRANCH  11  13
ATOM     13  C   UNL     1      -2.986  11.266  27.249  0.00  0.00    +0.169 C 
BRANCH  13  14
ATOM     14  C   UNL     1      -3.544  12.137  26.114  0.00  0.00    -0.019 A 
ATOM     15  C   UNL     1      -2.752  12.424  24.989  0.00  0.00    +0.006 A 
ATOM     16  C   UNL     1      -3.229  13.263  23.978  0.00  0.00    +0.000 A 
ATOM     17  C   UNL     1      -4.506  13.816  24.066  0.00  0.00    +0.000 A 
ATOM     18  C   UNL     1      -5.303  13.546  25.173  0.00  0.00    +0.000 A 
ATOM     19  C   UNL     1      -4.822  12.724  26.191  0.00  0.00    +0.006 A 
ENDBRANCH  13  14
BRANCH  13  20
ATOM     20  C   UNL     1      -3.680  11.448  28.606  0.00  0.00    -0.019 A 
ATOM     21  C   UNL     1      -3.603  12.666  29.305  0.00  0.00    +0.006 A 
ATOM     22  C   UNL     1      -4.235  12.826  30.542  0.00  0.00    +0.000 A 
ATOM     23  C   UNL     1      -4.973  11.781  31.091  0.00  0.00    +0.000 A 
ATOM     24  C   UNL     1      -5.109  10.589  30.392  0.00  0.00    +0.000 A 
ATOM     25  C   UNL     1      -4.485  10.431  29.156  0.00  0.00    +0.006 A 
ENDBRANCH  13  20
ENDBRANCH  11  13
ENDBRANCH   7   9
ENDBRANCH   6   7
ENDBRANCH   2   6
ENDBRANCH   1   4
BRANCH   1  26
ATOM     26  C   UNL     1      -5.672   7.267  20.599  0.00  0.00    +0.163 C 
BRANCH  26  27
ATOM     27  O   UNL     1      -5.179   6.451  19.524  0.00  0.00    -0.388 OA
ATOM     28  H   UNL     1      -4.359   6.822  19.190  0.00  0.00    +0.210 HD
ENDBRANCH  26  27
BRANCH  26  29
ATOM     29  C   UNL     1      -6.929   8.042  20.170  0.00  0.00    +0.175 C 
BRANCH  29  30
ATOM     30  C   UNL     1      -6.586   9.415  19.573  0.00  0.00    +0.176 C 
ATOM     31  O   UNL     1      -5.970   9.197  18.274  0.00  0.00    -0.332 OA
ATOM     32  C   UNL     1      -5.668  10.407  17.504  0.00  0.00    +0.277 C 
ATOM     33  C   UNL     1      -4.797  11.377  18.340  0.00  0.00    +0.110 C 
ATOM     34  C   UNL     1      -5.396  11.615  19.742  0.00  0.00    +0.143 C 
ATOM     35  C   UNL     1      -5.674  10.290  20.453  0.00  0.00    +0.133 C 
BRANCH  35  36
ATOM     36  N   UNL     1      -6.324  10.528  21.751  0.00  0.00    -0.308 N 
ATOM     37  H   UNL     1      -7.285  10.838  21.747  0.00  0.00    +0.149 HD
ATOM     38  C   UNL     1      -5.727  10.360  22.934  0.00  0.00    +0.210 C 
ATOM     39  C   UNL     1      -4.253   9.911  22.905  0.00  0.00    +0.109 C 
ATOM     40  O   UNL     1      -6.301  10.552  24.006  0.00  0.00    -0.276 OA
ENDBRANCH  35  36
BRANCH  32  41
ATOM     41  C   UNL     1      -6.967  11.120  17.075  0.00  0.00    +0.414 C 
ATOM     42  O   UNL     1      -7.966  10.465  16.783  0.00  0.00    -0.240 OA
ATOM     43  O   UNL     1      -7.015  12.350  17.020  0.00  0.00    -0.240 OA
ENDBRANCH  32  41
BRANCH  34  44
ATOM     44  O   UNL     1      -4.489  12.390  20.528  0.00  0.00    -0.390 OA
ATOM     45  H   UNL     1      -3.681  11.891  20.670  0.00  0.00    +0.210 HD
ENDBRANCH  34  44
BRANCH  32  46
ATOM     46  O   UNL     1      -4.914  10.015  16.328  0.00  0.00    -0.343 OA
ATOM     47  C   UNL     1      -4.464   8.636  16.321  0.00  0.00    +0.198 C 
ENDBRANCH  32  46
ENDBRANCH  29  30
BRANCH  29  48
ATOM     48  O   UNL     1      -7.824   8.197  21.289  0.00  0.00    -0.387 OA
ATOM     49  H   UNL     1      -7.961   9.131  21.463  0.00  0.00    +0.210 HD
ENDBRANCH  29  48
ENDBRANCH  26  29
ENDBRANCH   1  26
TORSDOF 16
