REMARK VINA RESULT:    -4.435      3.366      5.133
REMARK INTER + INTRA:         -11.147
REMARK INTER:                  -6.935
REMARK INTRA:                  -4.212
REMARK UNBOUND:                -3.213
REMARK  Name = lig_assembled_46.pdb
REMARK  17 active torsions:
REMARK  status: ('A' for Active; 'I' for Inactive)
REMARK    1  A    between atoms: _2  and  _9
REMARK    2  A    between atoms: _4  and  _19
REMARK    3  A    between atoms: _6  and  _7
REMARK    4  A    between atoms: _6  and  _19
REMARK    5  A    between atoms: _9  and  _10
REMARK    6  A    between atoms: _15  and  _35
REMARK    7  A    between atoms: _17  and  _23
REMARK    8  A    between atoms: _18  and  _22
REMARK    9  A    between atoms: _22  and  _23
REMARK   10  A    between atoms: _25  and  _26
REMARK   11  A    between atoms: _27  and  _28
REMARK   12  A    between atoms: _29  and  _31
REMARK   13  A    between atoms: _31  and  _32
REMARK   14  A    between atoms: _31  and  _33
REMARK   15  A    between atoms: _33  and  _34
REMARK   16  A    between atoms: _33  and  _35
REMARK   17  A    between atoms: _36  and  _38
REMARK                            x       y       z     vdW  Elec       q    Type
REMARK                         _______ _______ _______ _____ _____    ______ ____
ROOT
ATOM      1  C   UNL     1      -2.907  11.889  23.778  0.00  0.00    +0.163 C 
ENDROOT
BRANCH   1   2
ATOM      2  O   UNL     1      -2.263  12.143  25.037  0.00  0.00    -0.388 OA
ATOM      3  H   UNL     1      -1.359  11.819  25.006  0.00  0.00    +0.210 HD
ENDBRANCH   1   2
BRANCH   1   4
ATOM      4  C   UNL     1      -3.670  13.129  23.323  0.00  0.00    +0.141 C 
BRANCH   4   7
ATOM      5  C   UNL     1      -5.778  13.154  22.035  0.00  0.00    +0.401 C 
ATOM      6  O   UNL     1      -6.438  13.660  22.946  0.00  0.00    -0.226 OA
ATOM      7  N   UNL     1      -4.480  12.866  22.127  0.00  0.00    -0.279 N 
ATOM      8  H   UNL     1      -4.027  12.443  21.329  0.00  0.00    +0.152 HD
BRANCH   5   9
ATOM      9  O   UNL     1      -6.425  12.844  20.798  0.00  0.00    -0.444 OA
BRANCH   9  10
ATOM     10  C   UNL     1      -7.356  11.777  20.999  0.00  0.00    +0.292 C 
BRANCH  10  12
ATOM     11  N   UNL     1      -5.385  10.393  20.428  0.00  0.00    -0.131 NA
ATOM     12  C   UNL     1      -6.727  10.481  20.683  0.00  0.00    +0.120 A 
ATOM     13  C   UNL     1      -7.281   9.220  20.626  0.00  0.00    +0.137 A 
ATOM     14  N   UNL     1      -6.214   8.400  20.391  0.00  0.00    -0.247 N 
ATOM     15  N   UNL     1      -5.077   9.112  20.258  0.00  0.00    -0.065 NA
BRANCH  14  16
ATOM     16  C   UNL     1      -6.159   6.955  20.528  0.00  0.00    +0.180 C 
BRANCH  16  17
ATOM     17  C   UNL     1      -6.100   6.484  21.960  0.00  0.00    -0.026 A 
ATOM     18  C   UNL     1      -4.907   6.557  22.695  0.00  0.00    +0.005 A 
ATOM     19  C   UNL     1      -4.886   6.208  24.048  0.00  0.00    +0.000 A 
ATOM     20  C   UNL     1      -6.052   5.786  24.680  0.00  0.00    +0.000 A 
ATOM     21  C   UNL     1      -7.242   5.701  23.960  0.00  0.00    +0.000 A 
ATOM     22  C   UNL     1      -7.267   6.048  22.608  0.00  0.00    +0.005 A 
ENDBRANCH  16  17
ENDBRANCH  14  16
ENDBRANCH  10  12
ENDBRANCH   9  10
ENDBRANCH   5   9
ENDBRANCH   4   7
ENDBRANCH   1   4
BRANCH   1  23
ATOM     23  C   UNL     1      -3.877  10.700  23.886  0.00  0.00    +0.175 C 
BRANCH  23  24
ATOM     24  C   UNL     1      -3.838  10.047  25.275  0.00  0.00    +0.176 C 
ATOM     25  O   UNL     1      -2.896   8.940  25.223  0.00  0.00    -0.332 OA
ATOM     26  C   UNL     1      -2.647   8.258  26.496  0.00  0.00    +0.277 C 
ATOM     27  C   UNL     1      -3.980   7.781  27.124  0.00  0.00    +0.110 C 
ATOM     28  C   UNL     1      -5.024   8.916  27.173  0.00  0.00    +0.143 C 
ATOM     29  C   UNL     1      -5.202   9.557  25.796  0.00  0.00    +0.133 C 
BRANCH  29  30
ATOM     30  N   UNL     1      -6.135  10.693  25.873  0.00  0.00    -0.308 N 
ATOM     31  H   UNL     1      -5.885  11.469  26.470  0.00  0.00    +0.149 HD
ATOM     32  C   UNL     1      -7.290  10.765  25.206  0.00  0.00    +0.210 C 
ATOM     33  C   UNL     1      -7.654   9.555  24.325  0.00  0.00    +0.109 C 
ATOM     34  O   UNL     1      -8.044  11.736  25.279  0.00  0.00    -0.276 OA
ENDBRANCH  29  30
BRANCH  26  35
ATOM     35  C   UNL     1      -1.917   9.192  27.483  0.00  0.00    +0.414 C 
ATOM     36  O   UNL     1      -1.085  10.001  27.072  0.00  0.00    -0.240 OA
ATOM     37  O   UNL     1      -2.159   9.138  28.690  0.00  0.00    -0.240 OA
ENDBRANCH  26  35
BRANCH  26  38
ATOM     38  O   UNL     1      -1.825   7.093  26.228  0.00  0.00    -0.343 OA
ATOM     39  C   UNL     1      -2.067   5.959  27.099  0.00  0.00    +0.198 C 
ENDBRANCH  26  38
BRANCH  28  40
ATOM     40  O   UNL     1      -6.279   8.397  27.616  0.00  0.00    -0.390 OA
ATOM     41  H   UNL     1      -6.169   7.484  27.891  0.00  0.00    +0.210 HD
ENDBRANCH  28  40
ENDBRANCH  23  24
BRANCH  23  42
ATOM     42  O   UNL     1      -3.580   9.723  22.869  0.00  0.00    -0.387 OA
ATOM     43  H   UNL     1      -3.423   8.870  23.280  0.00  0.00    +0.210 HD
ENDBRANCH  23  42
ENDBRANCH   1  23
TORSDOF 15
