REMARK VINA RESULT:    -5.465      5.891     13.792
REMARK INTER + INTRA:         -13.415
REMARK INTER:                  -9.919
REMARK INTRA:                  -3.496
REMARK UNBOUND:                -3.157
REMARK  Name = lig_assembled_64.pdb
REMARK  19 active torsions:
REMARK  status: ('A' for Active; 'I' for Inactive)
REMARK    1  A    between atoms: _2  and  _10
REMARK    2  A    between atoms: _5  and  _27
REMARK    3  A    between atoms: _7  and  _8
REMARK    4  A    between atoms: _7  and  _27
REMARK    5  A    between atoms: _12  and  _13
REMARK    6  A    between atoms: _13  and  _21
REMARK    7  A    between atoms: _14  and  _15
REMARK    8  A    between atoms: _23  and  _43
REMARK    9  A    between atoms: _25  and  _31
REMARK   10  A    between atoms: _26  and  _30
REMARK   11  A    between atoms: _30  and  _31
REMARK   12  A    between atoms: _33  and  _34
REMARK   13  A    between atoms: _35  and  _36
REMARK   14  A    between atoms: _37  and  _39
REMARK   15  A    between atoms: _39  and  _40
REMARK   16  A    between atoms: _39  and  _41
REMARK   17  A    between atoms: _41  and  _42
REMARK   18  A    between atoms: _41  and  _43
REMARK   19  A    between atoms: _44  and  _46
REMARK                            x       y       z     vdW  Elec       q    Type
REMARK                         _______ _______ _______ _____ _____    ______ ____
ROOT
ATOM      1  C   UNL     1      -2.197   8.342  27.824  0.00  0.00    +0.401 C 
ATOM      2  O   UNL     1      -1.270   8.122  28.607  0.00  0.00    -0.226 OA
ATOM      3  N   UNL     1      -3.486   8.280  28.159  0.00  0.00    -0.279 N 
ATOM      4  H   UNL     1      -4.175   8.487  27.449  0.00  0.00    +0.152 HD
ENDROOT
BRANCH   3   5
ATOM      5  C   UNL     1      -3.962   7.928  29.503  0.00  0.00    +0.141 C 
BRANCH   5   6
ATOM      6  C   UNL     1      -4.119   9.157  30.391  0.00  0.00    +0.163 C 
BRANCH   6   7
ATOM      7  O   UNL     1      -2.863   9.479  31.011  0.00  0.00    -0.388 OA
ATOM      8  H   UNL     1      -2.223   8.791  30.814  0.00  0.00    +0.210 HD
ENDBRANCH   6   7
BRANCH   6   9
ATOM      9  C   UNL     1      -4.635  10.337  29.550  0.00  0.00    +0.175 C 
BRANCH   9  10
ATOM     10  C   UNL     1      -4.286  11.693  30.180  0.00  0.00    +0.176 C 
ATOM     11  O   UNL     1      -4.460  11.576  31.619  0.00  0.00    -0.332 OA
ATOM     12  C   UNL     1      -4.069  12.751  32.403  0.00  0.00    +0.277 C 
ATOM     13  C   UNL     1      -4.802  14.014  31.888  0.00  0.00    +0.110 C 
ATOM     14  C   UNL     1      -4.671  14.164  30.358  0.00  0.00    +0.143 C 
ATOM     15  C   UNL     1      -5.102  12.883  29.642  0.00  0.00    +0.133 C 
BRANCH  15  16
ATOM     16  N   UNL     1      -4.891  13.008  28.191  0.00  0.00    -0.308 N 
ATOM     17  H   UNL     1      -3.939  13.020  27.852  0.00  0.00    +0.149 HD
ATOM     18  C   UNL     1      -5.875  13.107  27.293  0.00  0.00    +0.210 C 
ATOM     19  C   UNL     1      -7.313  13.112  27.844  0.00  0.00    +0.109 C 
ATOM     20  O   UNL     1      -5.668  13.196  26.083  0.00  0.00    -0.276 OA
ENDBRANCH  15  16
BRANCH  12  21
ATOM     21  C   UNL     1      -2.544  12.974  32.330  0.00  0.00    +0.414 C 
ATOM     22  O   UNL     1      -2.081  14.113  32.379  0.00  0.00    -0.240 OA
ATOM     23  O   UNL     1      -1.777  12.017  32.221  0.00  0.00    -0.240 OA
ENDBRANCH  12  21
BRANCH  12  24
ATOM     24  O   UNL     1      -4.463  12.523  33.781  0.00  0.00    -0.343 OA
ATOM     25  C   UNL     1      -5.800  12.970  34.117  0.00  0.00    +0.198 C 
ENDBRANCH  12  24
BRANCH  14  26
ATOM     26  O   UNL     1      -5.484  15.250  29.910  0.00  0.00    -0.390 OA
ATOM     27  H   UNL     1      -6.380  14.939  29.760  0.00  0.00    +0.210 HD
ENDBRANCH  14  26
ENDBRANCH   9  10
BRANCH   9  28
ATOM     28  O   UNL     1      -6.060  10.228  29.363  0.00  0.00    -0.387 OA
ATOM     29  H   UNL     1      -6.242   9.763  28.543  0.00  0.00    +0.210 HD
ENDBRANCH   9  28
ENDBRANCH   6   9
ENDBRANCH   5   6
ENDBRANCH   3   5
BRANCH   1  30
ATOM     30  O   UNL     1      -1.896   8.691  26.470  0.00  0.00    -0.444 OA
BRANCH  30  31
ATOM     31  C   UNL     1      -2.041  10.103  26.297  0.00  0.00    +0.292 C 
BRANCH  31  33
ATOM     32  N   UNL     1      -4.363   9.892  25.448  0.00  0.00    -0.131 NA
ATOM     33  C   UNL     1      -3.101  10.397  25.315  0.00  0.00    +0.121 A 
ATOM     34  C   UNL     1      -3.045  11.166  24.176  0.00  0.00    +0.143 A 
ATOM     35  N   UNL     1      -4.307  11.093  23.635  0.00  0.00    -0.220 N 
ATOM     36  N   UNL     1      -5.091  10.321  24.424  0.00  0.00    -0.060 NA
BRANCH  35  37
ATOM     37  C   UNL     1      -4.793  11.700  22.452  0.00  0.00    +0.071 A 
ATOM     38  C   UNL     1      -5.546  12.867  22.520  0.00  0.00    +0.063 A 
ATOM     39  CA  UNL     1      -5.991  13.409  21.330  0.00  0.00    +0.150 A 
ATOM     40  N   UNL     1      -5.752  12.881  20.095  0.00  0.00    -0.240 NA
ATOM     41  C   UNL     1      -5.026  11.732  20.038  0.00  0.00    +0.074 A 
ATOM     42  C   UNL     1      -4.525  11.129  21.197  0.00  0.00    +0.056 A 
BRANCH  41  43
ATOM     43  C   UNL     1      -4.833  11.162  18.683  0.00  0.00    +0.000 A 
ATOM     44  C   UNL     1      -4.486  11.963  17.578  0.00  0.00    +0.010 A 
ATOM     45  C   UNL     1      -4.269  11.409  16.310  0.00  0.00    +0.001 A 
ATOM     46  C   UNL     1      -4.393  10.037  16.116  0.00  0.00    +0.000 A 
ATOM     47  C   UNL     1      -4.743   9.221  17.187  0.00  0.00    +0.001 A 
ATOM     48  C   UNL     1      -4.960   9.778  18.453  0.00  0.00    +0.010 A 
ENDBRANCH  41  43
BRANCH  39  49
ATOM     49  C   UNL     1      -6.803  14.660  21.355  0.00  0.00    +0.355 C 
ATOM     50  OXT UNL     1      -6.518  15.655  21.997  0.00  0.00    -0.243 OA
BRANCH  49  51
ATOM     51  O   UNL     1      -7.898  14.536  20.570  0.00  0.00    -0.476 OA
ATOM     52  H   UNL     1      -8.701  14.516  21.141  0.00  0.00    +0.295 HD
ENDBRANCH  49  51
ENDBRANCH  39  49
ENDBRANCH  35  37
ENDBRANCH  31  33
ENDBRANCH  30  31
ENDBRANCH   1  30
TORSDOF 17
