REMARK VINA RESULT:    -4.859      4.345      7.630
REMARK INTER + INTRA:         -11.597
REMARK INTER:                  -9.734
REMARK INTRA:                  -1.864
REMARK UNBOUND:                -2.903
REMARK  Name = lig_assembled_69.pdb
REMARK  18 active torsions:
REMARK  status: ('A' for Active; 'I' for Inactive)
REMARK    1  A    between atoms: _2  and  _9
REMARK    2  A    between atoms: _4  and  _21
REMARK    3  A    between atoms: _6  and  _7
REMARK    4  A    between atoms: _6  and  _21
REMARK    5  A    between atoms: _11  and  _16
REMARK    6  A    between atoms: _14  and  _15
REMARK    7  A    between atoms: _17  and  _37
REMARK    8  A    between atoms: _19  and  _25
REMARK    9  A    between atoms: _20  and  _24
REMARK   10  A    between atoms: _24  and  _25
REMARK   11  A    between atoms: _27  and  _28
REMARK   12  A    between atoms: _29  and  _30
REMARK   13  A    between atoms: _31  and  _33
REMARK   14  A    between atoms: _33  and  _34
REMARK   15  A    between atoms: _33  and  _35
REMARK   16  A    between atoms: _35  and  _36
REMARK   17  A    between atoms: _35  and  _37
REMARK   18  A    between atoms: _38  and  _40
REMARK                            x       y       z     vdW  Elec       q    Type
REMARK                         _______ _______ _______ _____ _____    ______ ____
ROOT
ATOM      1  C   UNL     1      -3.589  11.474  24.847  0.00  0.00    +0.163 C 
ENDROOT
BRANCH   1   2
ATOM      2  O   UNL     1      -2.763  10.306  24.710  0.00  0.00    -0.388 OA
ATOM      3  H   UNL     1      -2.753  10.026  23.792  0.00  0.00    +0.210 HD
ENDBRANCH   1   2
BRANCH   1   4
ATOM      4  C   UNL     1      -3.825  11.810  26.330  0.00  0.00    +0.175 C 
BRANCH   4   5
ATOM      5  C   UNL     1      -3.466  10.636  27.253  0.00  0.00    +0.176 C 
ATOM      6  O   UNL     1      -4.095   9.439  26.718  0.00  0.00    -0.332 OA
ATOM      7  C   UNL     1      -3.775   8.189  27.415  0.00  0.00    +0.277 C 
ATOM      8  C   UNL     1      -4.091   8.316  28.925  0.00  0.00    +0.110 C 
ATOM      9  C   UNL     1      -3.470   9.592  29.532  0.00  0.00    +0.143 C 
ATOM     10  C   UNL     1      -3.865  10.831  28.728  0.00  0.00    +0.133 C 
BRANCH  10  11
ATOM     11  N   UNL     1      -3.198  12.027  29.263  0.00  0.00    -0.308 N 
ATOM     12  H   UNL     1      -2.194  12.090  29.168  0.00  0.00    +0.149 HD
ATOM     13  C   UNL     1      -3.832  13.036  29.868  0.00  0.00    +0.210 C 
ATOM     14  C   UNL     1      -5.359  12.898  30.021  0.00  0.00    +0.109 C 
ATOM     15  O   UNL     1      -3.249  14.033  30.294  0.00  0.00    -0.276 OA
ENDBRANCH  10  11
BRANCH   7  16
ATOM     16  C   UNL     1      -2.287   7.825  27.229  0.00  0.00    +0.414 C 
ATOM     17  O   UNL     1      -1.686   8.171  26.212  0.00  0.00    -0.240 OA
ATOM     18  O   UNL     1      -1.688   7.184  28.094  0.00  0.00    -0.240 OA
ENDBRANCH   7  16
BRANCH   7  19
ATOM     19  O   UNL     1      -4.608   7.139  26.859  0.00  0.00    -0.343 OA
ATOM     20  C   UNL     1      -5.335   7.505  25.659  0.00  0.00    +0.198 C 
ENDBRANCH   7  19
BRANCH   9  21
ATOM     21  O   UNL     1      -3.911   9.747  30.882  0.00  0.00    -0.390 OA
ATOM     22  H   UNL     1      -4.549   9.061  31.092  0.00  0.00    +0.210 HD
ENDBRANCH   9  21
ENDBRANCH   4   5
BRANCH   4  23
ATOM     23  O   UNL     1      -5.195  12.205  26.538  0.00  0.00    -0.387 OA
ATOM     24  H   UNL     1      -5.379  13.002  26.036  0.00  0.00    +0.210 HD
ENDBRANCH   4  23
ENDBRANCH   1   4
BRANCH   1  25
ATOM     25  C   UNL     1      -2.932  12.662  24.153  0.00  0.00    +0.141 C 
BRANCH  25  28
ATOM     26  C   UNL     1      -3.301  12.052  21.788  0.00  0.00    +0.401 C 
ATOM     27  O   UNL     1      -2.642  11.012  21.855  0.00  0.00    -0.226 OA
ATOM     28  N   UNL     1      -3.484  12.886  22.812  0.00  0.00    -0.279 N 
ATOM     29  H   UNL     1      -4.034  13.720  22.656  0.00  0.00    +0.152 HD
BRANCH  26  30
ATOM     30  O   UNL     1      -3.913  12.407  20.545  0.00  0.00    -0.444 OA
BRANCH  30  31
ATOM     31  C   UNL     1      -5.133  11.677  20.387  0.00  0.00    +0.292 C 
BRANCH  31  33
ATOM     32  N   UNL     1      -5.158   9.359  19.533  0.00  0.00    -0.131 NA
ATOM     33  C   UNL     1      -5.008  10.698  19.292  0.00  0.00    +0.120 A 
ATOM     34  C   UNL     1      -4.739  10.889  17.955  0.00  0.00    +0.137 A 
ATOM     35  N   UNL     1      -4.724   9.626  17.440  0.00  0.00    -0.248 N 
ATOM     36  N   UNL     1      -4.976   8.711  18.392  0.00  0.00    -0.065 NA
BRANCH  35  37
ATOM     37  C   UNL     1      -4.427   9.217  16.068  0.00  0.00    +0.114 C 
ATOM     38  C   UNL     1      -4.314   7.692  15.948  0.00  0.00    +0.062 C 
ATOM     39  C   UNL     1      -2.951   7.086  16.289  0.00  0.00    +0.139 C 
ATOM     40  C   UNL     1      -1.837   7.353  15.316  0.00  0.00    +0.002 C 
ATOM     41  C   UNL     1      -1.733   8.338  14.409  0.00  0.00    +0.002 C 
ATOM     42  C   UNL     1      -2.637   9.518  14.229  0.00  0.00    +0.139 C 
ATOM     43  C   UNL     1      -3.256  10.044  15.519  0.00  0.00    +0.062 C 
BRANCH  39  44
ATOM     44  O   UNL     1      -3.116   5.663  16.300  0.00  0.00    -0.388 OA
ATOM     45  H   UNL     1      -2.442   5.288  15.707  0.00  0.00    +0.210 HD
ENDBRANCH  39  44
BRANCH  42  46
ATOM     46  O   UNL     1      -3.650   9.196  13.288  0.00  0.00    -0.388 OA
ATOM     47  H   UNL     1      -4.474   9.057  13.786  0.00  0.00    +0.210 HD
ENDBRANCH  42  46
ENDBRANCH  35  37
ENDBRANCH  31  33
ENDBRANCH  30  31
ENDBRANCH  26  30
ENDBRANCH  25  28
ENDBRANCH   1  25
TORSDOF 16
