REMARK VINA RESULT:    -6.249      0.230      2.725
REMARK INTER + INTRA:         -13.957
REMARK INTER:                  -9.755
REMARK INTRA:                  -4.202
REMARK UNBOUND:                -3.141
REMARK  Name = lig_assembled_91.pdb
REMARK  16 active torsions:
REMARK  status: ('A' for Active; 'I' for Inactive)
REMARK    1  A    between atoms: _2  and  _10
REMARK    2  A    between atoms: _5  and  _26
REMARK    3  A    between atoms: _7  and  _8
REMARK    4  A    between atoms: _7  and  _26
REMARK    5  A    between atoms: _22  and  _42
REMARK    6  A    between atoms: _24  and  _30
REMARK    7  A    between atoms: _25  and  _29
REMARK    8  A    between atoms: _29  and  _30
REMARK    9  A    between atoms: _32  and  _33
REMARK   10  A    between atoms: _34  and  _35
REMARK   11  A    between atoms: _36  and  _38
REMARK   12  A    between atoms: _38  and  _39
REMARK   13  A    between atoms: _38  and  _40
REMARK   14  A    between atoms: _40  and  _41
REMARK   15  A    between atoms: _40  and  _42
REMARK   16  A    between atoms: _43  and  _45
REMARK                            x       y       z     vdW  Elec       q    Type
REMARK                         _______ _______ _______ _____ _____    ______ ____
ROOT
ATOM      1  C   UNL     1      -5.320   8.705  22.087  0.00  0.00    +0.401 C 
ATOM      2  O   UNL     1      -4.339   7.994  21.856  0.00  0.00    -0.226 OA
ATOM      3  N   UNL     1      -6.322   8.352  22.894  0.00  0.00    -0.279 N 
ATOM      4  H   UNL     1      -7.079   9.007  23.029  0.00  0.00    +0.152 HD
ENDROOT
BRANCH   3   5
ATOM      5  C   UNL     1      -6.387   7.065  23.597  0.00  0.00    +0.141 C 
BRANCH   5   6
ATOM      6  C   UNL     1      -5.753   7.141  24.983  0.00  0.00    +0.163 C 
BRANCH   6   7
ATOM      7  O   UNL     1      -4.325   7.026  24.877  0.00  0.00    -0.388 OA
ATOM      8  H   UNL     1      -4.102   6.481  24.118  0.00  0.00    +0.210 HD
ENDBRANCH   6   7
BRANCH   6   9
ATOM      9  C   UNL     1      -6.150   8.466  25.657  0.00  0.00    +0.175 C 
BRANCH   9  10
ATOM     10  C   UNL     1      -4.931   9.351  25.955  0.00  0.00    +0.176 C 
ATOM     11  O   UNL     1      -4.435   8.999  27.276  0.00  0.00    -0.332 OA
ATOM     12  C   UNL     1      -3.201   9.673  27.690  0.00  0.00    +0.277 C 
ATOM     13  C   UNL     1      -3.362  11.209  27.584  0.00  0.00    +0.110 C 
ATOM     14  C   UNL     1      -3.917  11.630  26.207  0.00  0.00    +0.143 C 
ATOM     15  C   UNL     1      -5.199  10.865  25.875  0.00  0.00    +0.133 C 
BRANCH  15  16
ATOM     16  N   UNL     1      -5.670  11.211  24.525  0.00  0.00    -0.308 N 
ATOM     17  H   UNL     1      -5.066  10.993  23.744  0.00  0.00    +0.149 HD
ATOM     18  C   UNL     1      -6.843  11.793  24.263  0.00  0.00    +0.210 C 
ATOM     19  C   UNL     1      -7.729  12.136  25.475  0.00  0.00    +0.109 C 
ATOM     20  O   UNL     1      -7.218  12.057  23.120  0.00  0.00    -0.276 OA
ENDBRANCH  15  16
BRANCH  12  21
ATOM     21  C   UNL     1      -2.011   9.217  26.821  0.00  0.00    +0.414 C 
ATOM     22  O   UNL     1      -1.105  10.004  26.548  0.00  0.00    -0.240 OA
ATOM     23  O   UNL     1      -1.956   8.064  26.392  0.00  0.00    -0.240 OA
ENDBRANCH  12  21
BRANCH  14  24
ATOM     24  O   UNL     1      -4.191  13.031  26.205  0.00  0.00    -0.390 OA
ATOM     25  H   UNL     1      -3.565  13.481  26.779  0.00  0.00    +0.210 HD
ENDBRANCH  14  24
BRANCH  12  26
ATOM     26  O   UNL     1      -2.949   9.334  29.078  0.00  0.00    -0.343 OA
ATOM     27  C   UNL     1      -4.110   8.875  29.817  0.00  0.00    +0.198 C 
ENDBRANCH  12  26
ENDBRANCH   9  10
BRANCH   9  28
ATOM     28  O   UNL     1      -6.884   8.206  26.870  0.00  0.00    -0.387 OA
ATOM     29  H   UNL     1      -6.351   8.460  27.627  0.00  0.00    +0.210 HD
ENDBRANCH   9  28
ENDBRANCH   6   9
ENDBRANCH   5   6
ENDBRANCH   3   5
BRANCH   1  30
ATOM     30  O   UNL     1      -5.409   9.990  21.468  0.00  0.00    -0.444 OA
BRANCH  30  31
ATOM     31  C   UNL     1      -4.094  10.470  21.173  0.00  0.00    +0.292 C 
BRANCH  31  33
ATOM     32  N   UNL     1      -3.252  11.963  22.949  0.00  0.00    -0.131 NA
ATOM     33  C   UNL     1      -3.889  11.810  21.756  0.00  0.00    +0.121 A 
ATOM     34  C   UNL     1      -4.234  13.052  21.273  0.00  0.00    +0.143 A 
ATOM     35  N   UNL     1      -3.825  13.951  22.238  0.00  0.00    -0.218 N 
ATOM     36  N   UNL     1      -3.214  13.257  23.232  0.00  0.00    -0.060 NA
BRANCH  35  37
ATOM     37  C   UNL     1      -3.976  15.371  22.282  0.00  0.00    +0.085 A 
ATOM     38  C   UNL     1      -5.197  15.955  22.778  0.00  0.00    +0.026 A 
ATOM     39  C   UNL     1      -5.253  17.362  22.755  0.00  0.00    +0.074 A 
ATOM     40  C   UNL     1      -6.377  18.037  23.205  0.00  0.00    +0.028 A 
ATOM     41  C   UNL     1      -7.493  17.373  23.702  0.00  0.00    +0.002 A 
ATOM     42  C   UNL     1      -7.470  15.994  23.777  0.00  0.00    +0.001 A 
ATOM     43  N   UNL     1      -4.255  18.136  22.335  0.00  0.00    -0.247 NA
ATOM     44  C   UNL     1      -3.117  17.594  21.905  0.00  0.00    +0.074 A 
ATOM     45  C   UNL     1      -2.142  18.495  21.488  0.00  0.00    +0.028 A 
ATOM     46  C   UNL     1      -0.916  18.081  20.979  0.00  0.00    +0.002 A 
ATOM     47  C   UNL     1      -0.659  16.729  20.871  0.00  0.00    +0.001 A 
ATOM     48  C   UNL     1      -1.630  15.810  21.280  0.00  0.00    +0.012 A 
ATOM     49  C   UNL     1      -6.336  15.298  23.344  0.00  0.00    +0.012 A 
ATOM     50  C   UNL     1      -2.890  16.210  21.833  0.00  0.00    +0.026 A 
ENDBRANCH  35  37
ENDBRANCH  31  33
ENDBRANCH  30  31
ENDBRANCH   1  30
TORSDOF 14
