REMARK VINA RESULT:    -4.466      2.974      4.272
REMARK INTER + INTRA:         -12.726
REMARK INTER:                 -10.240
REMARK INTRA:                  -2.486
REMARK UNBOUND:                -4.083
REMARK  Name = lig_assembled_83.pdb
REMARK  20 active torsions:
REMARK  status: ('A' for Active; 'I' for Inactive)
REMARK    1  A    between atoms: _2  and  _12
REMARK    2  A    between atoms: _3  and  _14
REMARK    3  A    between atoms: _7  and  _24
REMARK    4  A    between atoms: _9  and  _10
REMARK    5  A    between atoms: _9  and  _24
REMARK    6  A    between atoms: _12  and  _13
REMARK    7  A    between atoms: _13  and  _14
REMARK    8  A    between atoms: _13  and  _18
REMARK    9  A    between atoms: _20  and  _40
REMARK   10  A    between atoms: _22  and  _28
REMARK   11  A    between atoms: _23  and  _27
REMARK   12  A    between atoms: _27  and  _28
REMARK   13  A    between atoms: _30  and  _31
REMARK   14  A    between atoms: _32  and  _33
REMARK   15  A    between atoms: _34  and  _36
REMARK   16  A    between atoms: _36  and  _37
REMARK   17  A    between atoms: _36  and  _38
REMARK   18  A    between atoms: _38  and  _39
REMARK   19  A    between atoms: _38  and  _40
REMARK   20  A    between atoms: _41  and  _43
REMARK                            x       y       z     vdW  Elec       q    Type
REMARK                         _______ _______ _______ _____ _____    ______ ____
ROOT
ATOM      1  C   UNL     1      -4.301  12.603  21.144  0.00  0.00    +0.141 C 
ENDROOT
BRANCH   1   4
ATOM      2  C   UNL     1      -5.928  12.168  19.336  0.00  0.00    +0.401 C 
ATOM      3  O   UNL     1      -6.889  12.619  19.964  0.00  0.00    -0.226 OA
ATOM      4  N   UNL     1      -4.684  12.116  19.813  0.00  0.00    -0.279 N 
ATOM      5  H   UNL     1      -3.964  11.720  19.225  0.00  0.00    +0.152 HD
BRANCH   2   6
ATOM      6  O   UNL     1      -6.138  11.661  18.015  0.00  0.00    -0.444 OA
BRANCH   6   7
ATOM      7  C   UNL     1      -5.230  10.584  17.767  0.00  0.00    +0.292 C 
BRANCH   7   9
ATOM      8  N   UNL     1      -3.829   9.720  15.909  0.00  0.00    -0.131 NA
ATOM      9  C   UNL     1      -4.714  10.651  16.388  0.00  0.00    +0.120 A 
ATOM     10  C   UNL     1      -4.982  11.565  15.395  0.00  0.00    +0.137 A 
ATOM     11  N   UNL     1      -4.246  11.126  14.338  0.00  0.00    -0.249 N 
ATOM     12  N   UNL     1      -3.543  10.025  14.649  0.00  0.00    -0.065 NA
BRANCH  11  13
ATOM     13  C   UNL     1      -4.135  11.725  13.024  0.00  0.00    +0.178 C 
BRANCH  13  14
ATOM     14  C   UNL     1      -2.713  12.216  12.740  0.00  0.00    +0.156 C 
BRANCH  14  15
ATOM     15  O   UNL     1      -1.879  11.111  12.376  0.00  0.00    -0.388 OA
ATOM     16  H   UNL     1      -1.180  10.988  13.050  0.00  0.00    +0.210 HD
ENDBRANCH  14  15
BRANCH  14  17
ATOM     17  C   UNL     1      -2.722  13.268  11.619  0.00  0.00    +0.162 C 
BRANCH  17  18
ATOM     18  N   UNL     1      -2.014  14.484  11.989  0.00  0.00    -0.269 N 
ATOM     19  C   UNL     1      -2.611  15.541  12.638  0.00  0.00    +0.113 A 
ATOM     20  C   UNL     1      -1.612  16.467  12.832  0.00  0.00    +0.137 A 
ATOM     21  N   UNL     1      -0.431  16.026  12.299  0.00  0.00    -0.172 NA
ATOM     22  C   UNL     1      -0.697  14.831  11.805  0.00  0.00    +0.450 A 
ATOM     23  N   UNL     1       0.309  14.018  11.159  0.00  0.00    +0.120 N 
ATOM     24  O   UNL     1      -0.039  12.906  10.728  0.00  0.00    +0.045 OA
ATOM     25  O   UNL     1       1.449  14.488  11.066  0.00  0.00    -0.573 OA
ENDBRANCH  17  18
ENDBRANCH  14  17
ENDBRANCH  13  14
ENDBRANCH  11  13
ENDBRANCH   7   9
ENDBRANCH   6   7
ENDBRANCH   2   6
ENDBRANCH   1   4
BRANCH   1  26
ATOM     26  C   UNL     1      -4.049  11.457  22.118  0.00  0.00    +0.163 C 
BRANCH  26  27
ATOM     27  O   UNL     1      -3.615  10.290  21.401  0.00  0.00    -0.388 OA
ATOM     28  H   UNL     1      -2.788   9.974  21.774  0.00  0.00    +0.210 HD
ENDBRANCH  26  27
BRANCH  26  29
ATOM     29  C   UNL     1      -2.999  11.887  23.157  0.00  0.00    +0.175 C 
BRANCH  29  30
ATOM     30  C   UNL     1      -3.305  11.328  24.554  0.00  0.00    +0.176 C 
ATOM     31  O   UNL     1      -3.104   9.889  24.513  0.00  0.00    -0.332 OA
ATOM     32  C   UNL     1      -3.250   9.192  25.795  0.00  0.00    +0.277 C 
ATOM     33  C   UNL     1      -4.625   9.510  26.431  0.00  0.00    +0.110 C 
ATOM     34  C   UNL     1      -4.898  11.029  26.467  0.00  0.00    +0.143 C 
ATOM     35  C   UNL     1      -4.715  11.652  25.083  0.00  0.00    +0.133 C 
BRANCH  35  36
ATOM     36  N   UNL     1      -4.892  13.111  25.147  0.00  0.00    -0.308 N 
ATOM     37  H   UNL     1      -4.194  13.650  25.641  0.00  0.00    +0.149 HD
ATOM     38  C   UNL     1      -5.915  13.770  24.597  0.00  0.00    +0.210 C 
ATOM     39  C   UNL     1      -6.976  12.919  23.875  0.00  0.00    +0.109 C 
ATOM     40  O   UNL     1      -6.030  14.995  24.654  0.00  0.00    -0.276 OA
ENDBRANCH  35  36
BRANCH  32  41
ATOM     41  C   UNL     1      -2.125   9.598  26.769  0.00  0.00    +0.414 C 
ATOM     42  O   UNL     1      -2.336   9.633  27.980  0.00  0.00    -0.240 OA
ATOM     43  O   UNL     1      -1.006   9.890  26.344  0.00  0.00    -0.240 OA
ENDBRANCH  32  41
BRANCH  32  44
ATOM     44  O   UNL     1      -3.183   7.765  25.540  0.00  0.00    -0.343 OA
ATOM     45  C   UNL     1      -4.427   7.048  25.744  0.00  0.00    +0.198 C 
ENDBRANCH  32  44
BRANCH  34  46
ATOM     46  O   UNL     1      -6.231  11.268  26.918  0.00  0.00    -0.390 OA
ATOM     47  H   UNL     1      -6.688  11.829  26.287  0.00  0.00    +0.210 HD
ENDBRANCH  34  46
ENDBRANCH  29  30
BRANCH  29  48
ATOM     48  O   UNL     1      -2.909  13.325  23.206  0.00  0.00    -0.387 OA
ATOM     49  H   UNL     1      -2.299  13.632  22.531  0.00  0.00    +0.210 HD
ENDBRANCH  29  48
ENDBRANCH  26  29
ENDBRANCH   1  26
TORSDOF 18
