REMARK VINA RESULT:    -3.918      1.936      2.669
REMARK INTER + INTRA:         -10.164
REMARK INTER:                  -6.611
REMARK INTRA:                  -3.554
REMARK UNBOUND:                -3.040
REMARK  Name = lig_assembled_1.pdb
REMARK  18 active torsions:
REMARK  status: ('A' for Active; 'I' for Inactive)
REMARK    1  A    between atoms: _2  and  _9
REMARK    2  A    between atoms: _4  and  _15
REMARK    3  A    between atoms: _5  and  _9
REMARK    4  A    between atoms: _5  and  _10
REMARK    5  A    between atoms: _6  and  _7
REMARK    6  A    between atoms: _6  and  _15
REMARK    7  A    between atoms: _11  and  _31
REMARK    8  A    between atoms: _13  and  _19
REMARK    9  A    between atoms: _14  and  _18
REMARK   10  A    between atoms: _18  and  _19
REMARK   11  A    between atoms: _21  and  _22
REMARK   12  A    between atoms: _23  and  _24
REMARK   13  A    between atoms: _25  and  _27
REMARK   14  A    between atoms: _27  and  _28
REMARK   15  A    between atoms: _27  and  _29
REMARK   16  A    between atoms: _29  and  _30
REMARK   17  A    between atoms: _29  and  _31
REMARK   18  A    between atoms: _32  and  _34
REMARK                            x       y       z     vdW  Elec       q    Type
REMARK                         _______ _______ _______ _____ _____    ______ ____
ROOT
ATOM      1  C   UNL     1      -3.232  10.048  25.736  0.00  0.00    +0.175 C 
ENDROOT
BRANCH   1   2
ATOM      2  C   UNL     1      -3.053   8.761  26.555  0.00  0.00    +0.176 C 
ATOM      3  O   UNL     1      -3.526   7.648  25.748  0.00  0.00    -0.332 OA
ATOM      4  C   UNL     1      -3.334   6.316  26.331  0.00  0.00    +0.277 C 
ATOM      5  C   UNL     1      -3.969   6.246  27.742  0.00  0.00    +0.110 C 
ATOM      6  C   UNL     1      -3.520   7.428  28.627  0.00  0.00    +0.143 C 
ATOM      7  C   UNL     1      -3.762   8.764  27.923  0.00  0.00    +0.133 C 
BRANCH   7   8
ATOM      8  N   UNL     1      -3.251   9.876  28.739  0.00  0.00    -0.308 N 
ATOM      9  H   UNL     1      -2.250   9.960  28.849  0.00  0.00    +0.149 HD
ATOM     10  C   UNL     1      -4.024  10.783  29.343  0.00  0.00    +0.210 C 
ATOM     11  C   UNL     1      -5.545  10.613  29.177  0.00  0.00    +0.109 C 
ATOM     12  O   UNL     1      -3.567  11.713  30.009  0.00  0.00    -0.276 OA
ENDBRANCH   7   8
BRANCH   4  13
ATOM     13  C   UNL     1      -1.834   5.970  26.423  0.00  0.00    +0.414 C 
ATOM     14  O   UNL     1      -1.370   5.491  27.457  0.00  0.00    -0.240 OA
ATOM     15  O   UNL     1      -1.087   6.169  25.463  0.00  0.00    -0.240 OA
ENDBRANCH   4  13
BRANCH   4  16
ATOM     16  O   UNL     1      -4.006   5.353  25.479  0.00  0.00    -0.343 OA
ATOM     17  C   UNL     1      -4.493   5.883  24.220  0.00  0.00    +0.198 C 
ENDBRANCH   4  16
BRANCH   6  18
ATOM     18  O   UNL     1      -4.242   7.408  29.859  0.00  0.00    -0.390 OA
ATOM     19  H   UNL     1      -4.882   6.693  29.844  0.00  0.00    +0.210 HD
ENDBRANCH   6  18
ENDBRANCH   1   2
BRANCH   1  20
ATOM     20  O   UNL     1      -2.499  11.130  26.344  0.00  0.00    -0.387 OA
ATOM     21  H   UNL     1      -1.853  10.773  26.958  0.00  0.00    +0.210 HD
ENDBRANCH   1  20
BRANCH   1  22
ATOM     22  C   UNL     1      -4.713  10.433  25.580  0.00  0.00    +0.163 C 
BRANCH  22  23
ATOM     23  O   UNL     1      -5.257   9.900  24.361  0.00  0.00    -0.388 OA
ATOM     24  H   UNL     1      -6.014   9.345  24.564  0.00  0.00    +0.210 HD
ENDBRANCH  22  23
BRANCH  22  25
ATOM     25  C   UNL     1      -4.848  11.952  25.591  0.00  0.00    +0.141 C 
BRANCH  25  28
ATOM     26  C   UNL     1      -3.769  13.097  23.686  0.00  0.00    +0.401 C 
ATOM     27  O   UNL     1      -2.688  13.238  24.261  0.00  0.00    -0.226 OA
ATOM     28  N   UNL     1      -4.835  12.513  24.234  0.00  0.00    -0.279 N 
ATOM     29  H   UNL     1      -5.681  12.453  23.686  0.00  0.00    +0.152 HD
BRANCH  26  30
ATOM     30  O   UNL     1      -3.913  13.585  22.349  0.00  0.00    -0.444 OA
BRANCH  30  31
ATOM     31  C   UNL     1      -3.151  12.768  21.457  0.00  0.00    +0.292 C 
BRANCH  31  33
ATOM     32  N   UNL     1      -3.332  10.367  22.039  0.00  0.00    -0.131 NA
ATOM     33  C   UNL     1      -3.778  11.440  21.314  0.00  0.00    +0.120 A 
ATOM     34  C   UNL     1      -4.824  11.039  20.513  0.00  0.00    +0.137 A 
ATOM     35  N   UNL     1      -4.960   9.712  20.794  0.00  0.00    -0.249 N 
ATOM     36  N   UNL     1      -4.061   9.310  21.706  0.00  0.00    -0.065 NA
BRANCH  35  37
ATOM     37  C   UNL     1      -5.919   8.780  20.243  0.00  0.00    +0.173 C 
BRANCH  37  38
ATOM     38  C   UNL     1      -7.169   8.647  21.103  0.00  0.00    +0.179 C 
BRANCH  38  39
ATOM     39  O   UNL     1      -6.833   8.494  22.481  0.00  0.00    -0.393 OA
ATOM     40  H   UNL     1      -7.614   8.776  22.996  0.00  0.00    +0.209 HD
ENDBRANCH  38  39
ENDBRANCH  37  38
ENDBRANCH  35  37
ENDBRANCH  31  33
ENDBRANCH  30  31
ENDBRANCH  26  30
ENDBRANCH  25  28
ENDBRANCH  22  25
ENDBRANCH   1  22
TORSDOF 16
