REMARK VINA RESULT:    -4.530      2.564      4.506
REMARK INTER + INTRA:         -11.071
REMARK INTER:                  -9.293
REMARK INTRA:                  -1.777
REMARK UNBOUND:                -2.966
REMARK  Name = lig_assembled_89.pdb
REMARK  19 active torsions:
REMARK  status: ('A' for Active; 'I' for Inactive)
REMARK    1  A    between atoms: _2  and  _12
REMARK    2  A    between atoms: _5  and  _20
REMARK    3  A    between atoms: _7  and  _29
REMARK    4  A    between atoms: _9  and  _10
REMARK    5  A    between atoms: _9  and  _29
REMARK    6  A    between atoms: _20  and  _21
REMARK    7  A    between atoms: _20  and  _22
REMARK    8  A    between atoms: _25  and  _45
REMARK    9  A    between atoms: _27  and  _33
REMARK   10  A    between atoms: _28  and  _32
REMARK   11  A    between atoms: _32  and  _33
REMARK   12  A    between atoms: _35  and  _36
REMARK   13  A    between atoms: _37  and  _38
REMARK   14  A    between atoms: _39  and  _41
REMARK   15  A    between atoms: _41  and  _42
REMARK   16  A    between atoms: _41  and  _43
REMARK   17  A    between atoms: _43  and  _44
REMARK   18  A    between atoms: _43  and  _45
REMARK   19  A    between atoms: _46  and  _48
REMARK                            x       y       z     vdW  Elec       q    Type
REMARK                         _______ _______ _______ _____ _____    ______ ____
ROOT
ATOM      1  C   UNL     1      -4.055  11.587  14.637  0.00  0.00    +0.401 C 
ATOM      2  O   UNL     1      -4.894  12.379  14.202  0.00  0.00    -0.226 OA
ATOM      3  N   UNL     1      -2.974  11.198  13.958  0.00  0.00    -0.279 N 
ATOM      4  H   UNL     1      -2.339  10.552  14.403  0.00  0.00    +0.152 HD
ENDROOT
BRANCH   3   5
ATOM      5  C   UNL     1      -2.657  11.657  12.600  0.00  0.00    +0.141 C 
BRANCH   5   6
ATOM      6  C   UNL     1      -1.529  12.684  12.596  0.00  0.00    +0.163 C 
BRANCH   6   7
ATOM      7  O   UNL     1      -0.683  12.480  11.452  0.00  0.00    -0.388 OA
ATOM      8  H   UNL     1      -1.225  12.282  10.684  0.00  0.00    +0.210 HD
ENDBRANCH   6   7
BRANCH   6   9
ATOM      9  C   UNL     1      -2.125  14.102  12.593  0.00  0.00    +0.175 C 
BRANCH   9  10
ATOM     10  C   UNL     1      -1.388  15.037  11.622  0.00  0.00    +0.176 C 
ATOM     11  O   UNL     1      -0.034  15.220  12.119  0.00  0.00    -0.332 OA
ATOM     12  C   UNL     1       0.856  16.004  11.258  0.00  0.00    +0.277 C 
ATOM     13  C   UNL     1       0.225  17.382  10.939  0.00  0.00    +0.110 C 
ATOM     14  C   UNL     1      -1.227  17.240  10.437  0.00  0.00    +0.143 C 
ATOM     15  C   UNL     1      -2.064  16.404  11.406  0.00  0.00    +0.133 C 
BRANCH  15  16
ATOM     16  N   UNL     1      -3.421  16.203  10.874  0.00  0.00    -0.308 N 
ATOM     17  H   UNL     1      -3.522  15.645  10.038  0.00  0.00    +0.149 HD
ATOM     18  C   UNL     1      -4.527  16.710  11.424  0.00  0.00    +0.210 C 
ATOM     19  C   UNL     1      -4.337  17.578  12.683  0.00  0.00    +0.109 C 
ATOM     20  O   UNL     1      -5.653  16.513  10.965  0.00  0.00    -0.276 OA
ENDBRANCH  15  16
BRANCH  12  21
ATOM     21  C   UNL     1       1.147  15.253   9.942  0.00  0.00    +0.414 C 
ATOM     22  O   UNL     1       1.196  14.024   9.928  0.00  0.00    -0.240 OA
ATOM     23  O   UNL     1       1.331  15.876   8.896  0.00  0.00    -0.240 OA
ENDBRANCH  12  21
BRANCH  14  24
ATOM     24  O   UNL     1      -1.818  18.533  10.300  0.00  0.00    -0.390 OA
ATOM     25  H   UNL     1      -2.761  18.440  10.148  0.00  0.00    +0.210 HD
ENDBRANCH  14  24
BRANCH  12  26
ATOM     26  O   UNL     1       2.097  16.226  11.978  0.00  0.00    -0.343 OA
ATOM     27  C   UNL     1       2.815  17.428  11.605  0.00  0.00    +0.198 C 
ENDBRANCH  12  26
ENDBRANCH   9  10
BRANCH   9  28
ATOM     28  O   UNL     1      -2.103  14.653  13.925  0.00  0.00    -0.387 OA
ATOM     29  H   UNL     1      -2.293  15.593  13.886  0.00  0.00    +0.210 HD
ENDBRANCH   9  28
ENDBRANCH   6   9
ENDBRANCH   5   6
ENDBRANCH   3   5
BRANCH   1  30
ATOM     30  O   UNL     1      -4.227  11.042  15.947  0.00  0.00    -0.444 OA
BRANCH  30  31
ATOM     31  C   UNL     1      -5.586  11.213  16.360  0.00  0.00    +0.292 C 
BRANCH  31  33
ATOM     32  N   UNL     1      -6.765  12.379  18.184  0.00  0.00    -0.131 NA
ATOM     33  C   UNL     1      -5.637  11.767  17.724  0.00  0.00    +0.121 A 
ATOM     34  C   UNL     1      -4.689  11.769  18.718  0.00  0.00    +0.145 A 
ATOM     35  N   UNL     1      -5.297  12.380  19.799  0.00  0.00    -0.199 N 
ATOM     36  N   UNL     1      -6.553  12.739  19.443  0.00  0.00    -0.059 NA
BRANCH  35  37
ATOM     37  C   UNL     1      -4.736  12.518  21.102  0.00  0.00    +0.186 A 
ATOM     38  C   UNL     1      -4.719  11.625  22.154  0.00  0.00    +0.158 A 
ATOM     39  C   UNL     1      -5.334  10.351  22.369  0.00  0.00    +0.280 A 
ATOM     40  O   UNL     1      -6.303   9.974  21.724  0.00  0.00    -0.265 OA
ATOM     41  N   UNL     1      -4.764   9.575  23.398  0.00  0.00    -0.302 N 
ATOM     42  C   UNL     1      -3.965  10.204  24.426  0.00  0.00    +0.069 A 
ATOM     43  C   UNL     1      -3.605   9.550  25.613  0.00  0.00    +0.028 A 
ATOM     44  C   UNL     1      -2.873  10.208  26.611  0.00  0.00    +0.002 A 
ATOM     45  C   UNL     1      -2.475  11.530  26.441  0.00  0.00    +0.002 A 
ATOM     46  C   UNL     1      -2.804  12.205  25.270  0.00  0.00    +0.028 A 
ATOM     47  C   UNL     1      -3.549  11.546  24.281  0.00  0.00    +0.072 A 
ATOM     48  N   UNL     1      -3.904  12.202  23.091  0.00  0.00    -0.291 N 
ATOM     49  C   UNL     1      -3.562  13.446  22.626  0.00  0.00    +0.207 A 
ATOM     50  N   UNL     1      -4.038  13.667  21.419  0.00  0.00    -0.216 NA
BRANCH  41  51
ATOM     51  C   UNL     1      -5.177   8.156  23.506  0.00  0.00    +0.085 C 
ATOM     52  C   UNL     1      -6.009   7.847  24.766  0.00  0.00    +0.030 C 
ATOM     53  C   UNL     1      -3.984   7.207  23.407  0.00  0.00    +0.030 C 
ENDBRANCH  41  51
ENDBRANCH  35  37
ENDBRANCH  31  33
ENDBRANCH  30  31
ENDBRANCH   1  30
TORSDOF 15
