REMARK VINA RESULT:    -5.207      3.980     12.866
REMARK INTER + INTRA:         -12.929
REMARK INTER:                 -10.562
REMARK INTRA:                  -2.368
REMARK UNBOUND:                -3.157
REMARK  Name = lig_assembled_64.pdb
REMARK  19 active torsions:
REMARK  status: ('A' for Active; 'I' for Inactive)
REMARK    1  A    between atoms: _2  and  _10
REMARK    2  A    between atoms: _5  and  _27
REMARK    3  A    between atoms: _7  and  _8
REMARK    4  A    between atoms: _7  and  _27
REMARK    5  A    between atoms: _12  and  _13
REMARK    6  A    between atoms: _13  and  _21
REMARK    7  A    between atoms: _14  and  _15
REMARK    8  A    between atoms: _23  and  _43
REMARK    9  A    between atoms: _25  and  _31
REMARK   10  A    between atoms: _26  and  _30
REMARK   11  A    between atoms: _30  and  _31
REMARK   12  A    between atoms: _33  and  _34
REMARK   13  A    between atoms: _35  and  _36
REMARK   14  A    between atoms: _37  and  _39
REMARK   15  A    between atoms: _39  and  _40
REMARK   16  A    between atoms: _39  and  _41
REMARK   17  A    between atoms: _41  and  _42
REMARK   18  A    between atoms: _41  and  _43
REMARK   19  A    between atoms: _44  and  _46
REMARK                            x       y       z     vdW  Elec       q    Type
REMARK                         _______ _______ _______ _____ _____    ______ ____
ROOT
ATOM      1  C   UNL     1      -4.053  10.434  22.695  0.00  0.00    +0.401 C 
ATOM      2  O   UNL     1      -3.082   9.746  22.369  0.00  0.00    -0.226 OA
ATOM      3  N   UNL     1      -4.002  11.411  23.602  0.00  0.00    -0.279 N 
ATOM      4  H   UNL     1      -4.850  11.926  23.795  0.00  0.00    +0.152 HD
ENDROOT
BRANCH   3   5
ATOM      5  C   UNL     1      -2.785  11.780  24.335  0.00  0.00    +0.141 C 
BRANCH   5   6
ATOM      6  C   UNL     1      -3.083  12.138  25.787  0.00  0.00    +0.163 C 
BRANCH   6   7
ATOM      7  O   UNL     1      -4.324  12.857  25.871  0.00  0.00    -0.388 OA
ATOM      8  H   UNL     1      -4.167  13.789  25.706  0.00  0.00    +0.210 HD
ENDBRANCH   6   7
BRANCH   6   9
ATOM      9  C   UNL     1      -3.131  10.855  26.634  0.00  0.00    +0.175 C 
BRANCH   9  10
ATOM     10  C   UNL     1      -3.977  11.032  27.904  0.00  0.00    +0.176 C 
ATOM     11  O   UNL     1      -3.636  12.317  28.492  0.00  0.00    -0.332 OA
ATOM     12  C   UNL     1      -4.426  12.707  29.664  0.00  0.00    +0.277 C 
ATOM     13  C   UNL     1      -4.368  11.603  30.748  0.00  0.00    +0.110 C 
ATOM     14  C   UNL     1      -4.692  10.212  30.162  0.00  0.00    +0.143 C 
ATOM     15  C   UNL     1      -3.814   9.911  28.947  0.00  0.00    +0.133 C 
BRANCH  15  16
ATOM     16  N   UNL     1      -4.192   8.622  28.346  0.00  0.00    -0.308 N 
ATOM     17  H   UNL     1      -5.090   8.560  27.888  0.00  0.00    +0.149 HD
ATOM     18  C   UNL     1      -3.425   7.528  28.367  0.00  0.00    +0.210 C 
ATOM     19  C   UNL     1      -2.073   7.648  29.096  0.00  0.00    +0.109 C 
ATOM     20  O   UNL     1      -3.761   6.466  27.843  0.00  0.00    -0.276 OA
ENDBRANCH  15  16
BRANCH  12  21
ATOM     21  C   UNL     1      -5.896  12.966  29.271  0.00  0.00    +0.414 C 
ATOM     22  O   UNL     1      -6.176  13.347  28.135  0.00  0.00    -0.240 OA
ATOM     23  O   UNL     1      -6.800  12.795  30.089  0.00  0.00    -0.240 OA
ENDBRANCH  12  21
BRANCH  12  24
ATOM     24  O   UNL     1      -3.847  13.919  30.213  0.00  0.00    -0.343 OA
ATOM     25  C   UNL     1      -2.952  13.715  31.335  0.00  0.00    +0.198 C 
ENDBRANCH  12  24
BRANCH  14  26
ATOM     26  O   UNL     1      -4.479   9.210  31.157  0.00  0.00    -0.390 OA
ATOM     27  H   UNL     1      -3.977   8.484  30.779  0.00  0.00    +0.210 HD
ENDBRANCH  14  26
ENDBRANCH   9  10
BRANCH   9  28
ATOM     28  O   UNL     1      -1.795  10.438  26.981  0.00  0.00    -0.387 OA
ATOM     29  H   UNL     1      -1.814   9.965  27.816  0.00  0.00    +0.210 HD
ENDBRANCH   9  28
ENDBRANCH   6   9
ENDBRANCH   5   6
ENDBRANCH   3   5
BRANCH   1  30
ATOM     30  O   UNL     1      -5.317  10.190  22.074  0.00  0.00    -0.444 OA
BRANCH  30  31
ATOM     31  C   UNL     1      -5.578  11.209  21.105  0.00  0.00    +0.292 C 
BRANCH  31  33
ATOM     32  N   UNL     1      -5.195   9.437  19.411  0.00  0.00    -0.131 NA
ATOM     33  C   UNL     1      -5.177  10.757  19.759  0.00  0.00    +0.121 A 
ATOM     34  C   UNL     1      -4.747  11.498  18.683  0.00  0.00    +0.143 A 
ATOM     35  N   UNL     1      -4.502  10.577  17.692  0.00  0.00    -0.220 N 
ATOM     36  N   UNL     1      -4.786   9.335  18.152  0.00  0.00    -0.060 NA
BRANCH  35  37
ATOM     37  C   UNL     1      -4.035  10.805  16.375  0.00  0.00    +0.071 A 
ATOM     38  C   UNL     1      -3.458   9.771  15.645  0.00  0.00    +0.063 A 
ATOM     39  CA  UNL     1      -3.022  10.059  14.367  0.00  0.00    +0.150 A 
ATOM     40  N   UNL     1      -3.108  11.283  13.771  0.00  0.00    -0.240 NA
ATOM     41  C   UNL     1      -3.661  12.292  14.497  0.00  0.00    +0.074 A 
ATOM     42  C   UNL     1      -4.142  12.078  15.793  0.00  0.00    +0.056 A 
BRANCH  41  43
ATOM     43  C   UNL     1      -3.689  13.618  13.832  0.00  0.00    +0.000 A 
ATOM     44  C   UNL     1      -4.876  14.169  13.313  0.00  0.00    +0.010 A 
ATOM     45  C   UNL     1      -4.897  15.438  12.722  0.00  0.00    +0.001 A 
ATOM     46  C   UNL     1      -3.730  16.189  12.634  0.00  0.00    +0.000 A 
ATOM     47  C   UNL     1      -2.540  15.668  13.131  0.00  0.00    +0.001 A 
ATOM     48  C   UNL     1      -2.521  14.398  13.721  0.00  0.00    +0.010 A 
ENDBRANCH  41  43
BRANCH  39  49
ATOM     49  C   UNL     1      -2.397   8.981  13.549  0.00  0.00    +0.355 C 
ATOM     50  OXT UNL     1      -1.200   8.868  13.353  0.00  0.00    -0.243 OA
BRANCH  49  51
ATOM     51  O   UNL     1      -3.340   8.148  13.052  0.00  0.00    -0.476 OA
ATOM     52  H   UNL     1      -3.187   7.242  13.407  0.00  0.00    +0.295 HD
ENDBRANCH  49  51
ENDBRANCH  39  49
ENDBRANCH  35  37
ENDBRANCH  31  33
ENDBRANCH  30  31
ENDBRANCH   1  30
TORSDOF 17
