REMARK VINA RESULT:    -5.453      2.928      3.903
REMARK INTER + INTRA:         -13.073
REMARK INTER:                 -11.180
REMARK INTRA:                  -1.893
REMARK UNBOUND:                -2.678
REMARK  Name = lig_assembled_26.pdb
REMARK  20 active torsions:
REMARK  status: ('A' for Active; 'I' for Inactive)
REMARK    1  A    between atoms: _2  and  _9
REMARK    2  A    between atoms: _4  and  _23
REMARK    3  A    between atoms: _6  and  _7
REMARK    4  A    between atoms: _6  and  _23
REMARK    5  A    between atoms: _9  and  _10
REMARK    6  A    between atoms: _9  and  _11
REMARK    7  A    between atoms: _11  and  _12
REMARK    8  A    between atoms: _12  and  _13
REMARK    9  A    between atoms: _19  and  _39
REMARK   10  A    between atoms: _21  and  _27
REMARK   11  A    between atoms: _22  and  _26
REMARK   12  A    between atoms: _26  and  _27
REMARK   13  A    between atoms: _29  and  _30
REMARK   14  A    between atoms: _31  and  _32
REMARK   15  A    between atoms: _33  and  _35
REMARK   16  A    between atoms: _35  and  _36
REMARK   17  A    between atoms: _35  and  _37
REMARK   18  A    between atoms: _37  and  _38
REMARK   19  A    between atoms: _37  and  _39
REMARK   20  A    between atoms: _40  and  _42
REMARK                            x       y       z     vdW  Elec       q    Type
REMARK                         _______ _______ _______ _____ _____    ______ ____
ROOT
ATOM      1  C   UNL     1      -4.262  10.778  22.584  0.00  0.00    +0.163 C 
ENDROOT
BRANCH   1   2
ATOM      2  O   UNL     1      -3.935   9.523  21.965  0.00  0.00    -0.388 OA
ATOM      3  H   UNL     1      -4.501   8.833  22.320  0.00  0.00    +0.210 HD
ENDBRANCH   1   2
BRANCH   1   4
ATOM      4  C   UNL     1      -3.103  11.274  23.466  0.00  0.00    +0.175 C 
BRANCH   4   5
ATOM      5  C   UNL     1      -3.300  10.902  24.943  0.00  0.00    +0.176 C 
ATOM      6  O   UNL     1      -3.085   9.470  25.076  0.00  0.00    -0.332 OA
ATOM      7  C   UNL     1      -3.129   8.947  26.444  0.00  0.00    +0.277 C 
ATOM      8  C   UNL     1      -4.458   9.343  27.133  0.00  0.00    +0.110 C 
ATOM      9  C   UNL     1      -4.745  10.852  26.991  0.00  0.00    +0.143 C 
ATOM     10  C   UNL     1      -4.671  11.290  25.528  0.00  0.00    +0.133 C 
BRANCH  10  11
ATOM     11  N   UNL     1      -4.860  12.744  25.415  0.00  0.00    -0.308 N 
ATOM     12  H   UNL     1      -4.131  13.344  25.774  0.00  0.00    +0.149 HD
ATOM     13  C   UNL     1      -5.932  13.324  24.868  0.00  0.00    +0.210 C 
ATOM     14  C   UNL     1      -7.038  12.383  24.354  0.00  0.00    +0.109 C 
ATOM     15  O   UNL     1      -6.057  14.545  24.774  0.00  0.00    -0.276 OA
ENDBRANCH  10  11
BRANCH   7  16
ATOM     16  C   UNL     1      -1.940   9.479  27.271  0.00  0.00    +0.414 C 
ATOM     17  O   UNL     1      -2.052   9.639  28.486  0.00  0.00    -0.240 OA
ATOM     18  O   UNL     1      -0.870   9.749  26.725  0.00  0.00    -0.240 OA
ENDBRANCH   7  16
BRANCH   7  19
ATOM     19  O   UNL     1      -3.064   7.499  26.373  0.00  0.00    -0.343 OA
ATOM     20  C   UNL     1      -3.804   6.906  25.276  0.00  0.00    +0.198 C 
ENDBRANCH   7  19
BRANCH   9  21
ATOM     21  O   UNL     1      -6.044  11.146  27.505  0.00  0.00    -0.390 OA
ATOM     22  H   UNL     1      -6.020  11.134  28.465  0.00  0.00    +0.210 HD
ENDBRANCH   9  21
ENDBRANCH   4   5
BRANCH   4  23
ATOM     23  O   UNL     1      -2.951  12.701  23.330  0.00  0.00    -0.387 OA
ATOM     24  H   UNL     1      -2.020  12.931  23.380  0.00  0.00    +0.210 HD
ENDBRANCH   4  23
ENDBRANCH   1   4
BRANCH   1  25
ATOM     25  C   UNL     1      -4.572  11.821  21.516  0.00  0.00    +0.141 C 
BRANCH  25  28
ATOM     26  C   UNL     1      -4.868  11.628  19.071  0.00  0.00    +0.401 C 
ATOM     27  O   UNL     1      -5.927  12.260  19.054  0.00  0.00    -0.226 OA
ATOM     28  N   UNL     1      -4.171  11.371  20.178  0.00  0.00    -0.279 N 
ATOM     29  H   UNL     1      -3.318  10.836  20.091  0.00  0.00    +0.152 HD
BRANCH  26  30
ATOM     30  O   UNL     1      -4.339  11.128  17.840  0.00  0.00    -0.444 OA
BRANCH  30  31
ATOM     31  C   UNL     1      -5.049  11.709  16.743  0.00  0.00    +0.292 C 
BRANCH  31  33
ATOM     32  N   UNL     1      -3.209  10.771  15.368  0.00  0.00    -0.131 NA
ATOM     33  C   UNL     1      -4.225  11.676  15.522  0.00  0.00    +0.120 A 
ATOM     34  C   UNL     1      -4.303  12.462  14.396  0.00  0.00    +0.137 A 
ATOM     35  N   UNL     1      -3.293  12.010  13.601  0.00  0.00    -0.248 N 
ATOM     36  N   UNL     1      -2.655  10.972  14.179  0.00  0.00    -0.065 NA
BRANCH  35  37
ATOM     37  C   UNL     1      -2.904  12.438  12.266  0.00  0.00    +0.113 C 
ATOM     38  C   UNL     1      -4.081  12.709  11.319  0.00  0.00    +0.033 C 
BRANCH  37  39
ATOM     39  C   UNL     1      -1.906  13.610  12.285  0.00  0.00    +0.106 C 
BRANCH  39  40
ATOM     40  C   UNL     1      -0.705  13.414  11.380  0.00  0.00    +0.165 C 
ATOM     41  O   UNL     1      -0.576  12.423  10.664  0.00  0.00    -0.292 OA
BRANCH  40  42
ATOM     42  C   UNL     1       0.380  14.443  11.389  0.00  0.00    +0.017 A 
ATOM     43  C   UNL     1       1.425  14.440  10.458  0.00  0.00    +0.011 A 
ATOM     44  C   UNL     1       2.390  15.451  10.487  0.00  0.00    +0.001 A 
ATOM     45  C   UNL     1       2.321  16.460  11.446  0.00  0.00    +0.000 A 
ATOM     46  C   UNL     1       1.291  16.463  12.383  0.00  0.00    +0.001 A 
ATOM     47  C   UNL     1       0.323  15.458  12.355  0.00  0.00    +0.011 A 
ENDBRANCH  40  42
ENDBRANCH  39  40
ENDBRANCH  37  39
ENDBRANCH  35  37
ENDBRANCH  31  33
ENDBRANCH  30  31
ENDBRANCH  26  30
ENDBRANCH  25  28
ENDBRANCH   1  25
TORSDOF 17
