REMARK VINA RESULT:    -5.222      2.085      4.137
REMARK INTER + INTRA:         -12.513
REMARK INTER:                  -8.583
REMARK INTRA:                  -3.931
REMARK UNBOUND:                -2.560
REMARK  Name = lig_assembled_18.pdb
REMARK  19 active torsions:
REMARK  status: ('A' for Active; 'I' for Inactive)
REMARK    1  A    between atoms: _2  and  _10
REMARK    2  A    between atoms: _3  and  _12
REMARK    3  A    between atoms: _5  and  _21
REMARK    4  A    between atoms: _7  and  _8
REMARK    5  A    between atoms: _7  and  _21
REMARK    6  A    between atoms: _10  and  _11
REMARK    7  A    between atoms: _12  and  _13
REMARK    8  A    between atoms: _17  and  _37
REMARK    9  A    between atoms: _19  and  _25
REMARK   10  A    between atoms: _20  and  _24
REMARK   11  A    between atoms: _24  and  _25
REMARK   12  A    between atoms: _27  and  _28
REMARK   13  A    between atoms: _29  and  _30
REMARK   14  A    between atoms: _31  and  _33
REMARK   15  A    between atoms: _33  and  _34
REMARK   16  A    between atoms: _33  and  _35
REMARK   17  A    between atoms: _35  and  _36
REMARK   18  A    between atoms: _35  and  _37
REMARK   19  A    between atoms: _38  and  _40
REMARK                            x       y       z     vdW  Elec       q    Type
REMARK                         _______ _______ _______ _____ _____    ______ ____
ROOT
ATOM      1  C   UNL     1      -2.980  11.170  22.731  0.00  0.00    +0.163 C 
ENDROOT
BRANCH   1   2
ATOM      2  O   UNL     1      -2.846  12.148  21.687  0.00  0.00    -0.388 OA
ATOM      3  H   UNL     1      -2.845  13.029  22.071  0.00  0.00    +0.210 HD
ENDBRANCH   1   2
BRANCH   1   4
ATOM      4  C   UNL     1      -3.233  11.846  24.090  0.00  0.00    +0.175 C 
BRANCH   4   5
ATOM      5  C   UNL     1      -4.547  12.639  24.105  0.00  0.00    +0.176 C 
ATOM      6  O   UNL     1      -4.307  13.916  23.452  0.00  0.00    -0.332 OA
ATOM      7  C   UNL     1      -5.485  14.771  23.279  0.00  0.00    +0.277 C 
ATOM      8  C   UNL     1      -6.191  15.003  24.638  0.00  0.00    +0.110 C 
ATOM      9  C   UNL     1      -6.439  13.675  25.384  0.00  0.00    +0.143 C 
ATOM     10  C   UNL     1      -5.148  12.864  25.505  0.00  0.00    +0.133 C 
BRANCH  10  11
ATOM     11  N   UNL     1      -5.414  11.564  26.140  0.00  0.00    -0.308 N 
ATOM     12  H   UNL     1      -6.091  10.955  25.703  0.00  0.00    +0.149 HD
ATOM     13  C   UNL     1      -4.820  11.136  27.258  0.00  0.00    +0.210 C 
ATOM     14  C   UNL     1      -3.813  12.099  27.915  0.00  0.00    +0.109 C 
ATOM     15  O   UNL     1      -5.052  10.036  27.759  0.00  0.00    -0.276 OA
ENDBRANCH  10  11
BRANCH   7  16
ATOM     16  C   UNL     1      -6.479  14.137  22.283  0.00  0.00    +0.414 C 
ATOM     17  O   UNL     1      -7.691  14.284  22.439  0.00  0.00    -0.240 OA
ATOM     18  O   UNL     1      -6.070  13.480  21.326  0.00  0.00    -0.240 OA
ENDBRANCH   7  16
BRANCH   7  19
ATOM     19  O   UNL     1      -5.038  16.055  22.771  0.00  0.00    -0.343 OA
ATOM     20  C   UNL     1      -5.735  17.204  23.313  0.00  0.00    +0.198 C 
ENDBRANCH   7  19
BRANCH   9  21
ATOM     21  O   UNL     1      -6.949  13.945  26.690  0.00  0.00    -0.390 OA
ATOM     22  H   UNL     1      -6.226  14.184  27.274  0.00  0.00    +0.210 HD
ENDBRANCH   9  21
ENDBRANCH   4   5
BRANCH   4  23
ATOM     23  O   UNL     1      -2.128  12.709  24.428  0.00  0.00    -0.387 OA
ATOM     24  H   UNL     1      -2.421  13.372  25.057  0.00  0.00    +0.210 HD
ENDBRANCH   4  23
ENDBRANCH   1   4
BRANCH   1  25
ATOM     25  C   UNL     1      -4.131  10.222  22.412  0.00  0.00    +0.141 C 
BRANCH  25  28
ATOM     26  C   UNL     1      -5.256   8.784  24.078  0.00  0.00    +0.401 C 
ATOM     27  O   UNL     1      -6.311   9.423  24.055  0.00  0.00    -0.226 OA
ATOM     28  N   UNL     1      -4.184   9.091  23.347  0.00  0.00    -0.279 N 
ATOM     29  H   UNL     1      -3.361   8.512  23.441  0.00  0.00    +0.152 HD
BRANCH  26  30
ATOM     30  O   UNL     1      -5.153   7.645  24.935  0.00  0.00    -0.444 OA
BRANCH  30  31
ATOM     31  C   UNL     1      -3.807   7.161  24.926  0.00  0.00    +0.292 C 
BRANCH  31  33
ATOM     32  N   UNL     1      -2.255   8.559  26.261  0.00  0.00    -0.131 NA
ATOM     33  C   UNL     1      -3.128   7.506  26.189  0.00  0.00    +0.120 A 
ATOM     34  C   UNL     1      -3.216   6.912  27.427  0.00  0.00    +0.137 A 
ATOM     35  N   UNL     1      -2.397   7.665  28.216  0.00  0.00    -0.242 N 
ATOM     36  N   UNL     1      -1.803   8.642  27.505  0.00  0.00    -0.065 NA
BRANCH  35  37
ATOM     37  C   UNL     1      -2.034   7.456  29.598  0.00  0.00    +0.240 C 
BRANCH  37  38
ATOM     38  C   UNL     1      -3.090   7.967  30.550  0.00  0.00    +0.235 C 
ATOM     39  O   UNL     1      -3.477   7.307  31.512  0.00  0.00    -0.274 OA
ATOM     40  N   UNL     1      -3.542   9.246  30.294  0.00  0.00    -0.309 N 
ATOM     41  H   UNL     1      -3.332   9.693  29.413  0.00  0.00    +0.149 HD
BRANCH  40  42
ATOM     42  C   UNL     1      -4.542   9.876  31.132  0.00  0.00    +0.146 C 
BRANCH  42  43
ATOM     43  C   UNL     1      -3.917  10.988  31.910  0.00  0.00    +0.007 A 
ATOM     44  S   UNL     1      -4.667  11.593  33.328  0.00  0.00    -0.100 S 
ATOM     45  C   UNL     1      -3.454  12.779  33.541  0.00  0.00    +0.045 A 
ATOM     46  C   UNL     1      -2.485  12.712  32.564  0.00  0.00    +0.008 A 
ATOM     47  C   UNL     1      -2.750  11.671  31.627  0.00  0.00    +0.013 A 
ENDBRANCH  42  43
ENDBRANCH  40  42
ENDBRANCH  37  38
ENDBRANCH  35  37
ENDBRANCH  31  33
ENDBRANCH  30  31
ENDBRANCH  26  30
ENDBRANCH  25  28
ENDBRANCH   1  25
TORSDOF 17
