REMARK VINA RESULT:    -5.072      2.033      3.814
REMARK INTER + INTRA:         -13.265
REMARK INTER:                  -9.609
REMARK INTRA:                  -3.657
REMARK UNBOUND:                -3.302
REMARK  Name = lig_assembled_84.pdb
REMARK  21 active torsions:
REMARK  status: ('A' for Active; 'I' for Inactive)
REMARK    1  A    between atoms: _2  and  _11
REMARK    2  A    between atoms: _3  and  _14
REMARK    3  A    between atoms: _4  and  _17
REMARK    4  A    between atoms: _6  and  _28
REMARK    5  A    between atoms: _8  and  _9
REMARK    6  A    between atoms: _8  and  _28
REMARK    7  A    between atoms: _11  and  _12
REMARK    8  A    between atoms: _12  and  _13
REMARK    9  A    between atoms: _12  and  _14
REMARK   10  A    between atoms: _24  and  _44
REMARK   11  A    between atoms: _26  and  _32
REMARK   12  A    between atoms: _27  and  _31
REMARK   13  A    between atoms: _31  and  _32
REMARK   14  A    between atoms: _34  and  _35
REMARK   15  A    between atoms: _36  and  _37
REMARK   16  A    between atoms: _38  and  _40
REMARK   17  A    between atoms: _40  and  _41
REMARK   18  A    between atoms: _40  and  _42
REMARK   19  A    between atoms: _42  and  _43
REMARK   20  A    between atoms: _42  and  _44
REMARK   21  A    between atoms: _45  and  _47
REMARK                            x       y       z     vdW  Elec       q    Type
REMARK                         _______ _______ _______ _____ _____    ______ ____
ROOT
ATOM      1  C   UNL     1      -1.973  10.273  26.678  0.00  0.00    +0.401 C 
ATOM      2  O   UNL     1      -1.890  10.183  25.451  0.00  0.00    -0.226 OA
ATOM      3  N   UNL     1      -2.695  11.199  27.310  0.00  0.00    -0.279 N 
ATOM      4  H   UNL     1      -2.708  11.186  28.320  0.00  0.00    +0.152 HD
ENDROOT
BRANCH   1   5
ATOM      5  O   UNL     1      -1.264   9.336  27.493  0.00  0.00    -0.444 OA
BRANCH   5   6
ATOM      6  C   UNL     1      -2.030   8.134  27.615  0.00  0.00    +0.292 C 
BRANCH   6   8
ATOM      7  N   UNL     1      -1.889   6.587  29.547  0.00  0.00    -0.131 NA
ATOM      8  C   UNL     1      -2.260   7.803  29.034  0.00  0.00    +0.120 A 
ATOM      9  C   UNL     1      -2.863   8.544  30.026  0.00  0.00    +0.137 A 
ATOM     10  N   UNL     1      -2.889   7.700  31.096  0.00  0.00    -0.251 N 
ATOM     11  N   UNL     1      -2.282   6.535  30.813  0.00  0.00    -0.065 NA
BRANCH  10  12
ATOM     12  C   UNL     1      -3.586   7.885  32.354  0.00  0.00    +0.149 C 
BRANCH  12  13
ATOM     13  C   UNL     1      -4.421   9.174  32.434  0.00  0.00    +0.021 C 
ATOM     14  C   UNL     1      -5.921   8.861  32.524  0.00  0.00    +0.010 C 
BRANCH  13  15
ATOM     15  C   UNL     1      -4.015  10.031  33.657  0.00  0.00    +0.089 C 
BRANCH  15  16
ATOM     16  N   UNL     1      -3.748  11.449  33.380  0.00  0.00    -0.299 NA
ATOM     17  C   UNL     1      -4.996  12.242  33.540  0.00  0.00    +0.103 C 
ATOM     18  C   UNL     1      -4.742  13.751  33.342  0.00  0.00    +0.120 C 
ATOM     19  N   UNL     1      -4.174  13.986  32.010  0.00  0.00    -0.327 N 
ATOM     20  C   UNL     1      -2.963  13.204  31.722  0.00  0.00    +0.120 C 
ATOM     21  C   UNL     1      -3.217  11.696  32.016  0.00  0.00    +0.103 C 
BRANCH  19  22
ATOM     22  C   UNL     1      -4.701  14.902  31.129  0.00  0.00    +0.030 A 
ATOM     23  C   UNL     1      -4.300  16.250  31.149  0.00  0.00    +0.024 A 
ATOM     24  C   UNL     1      -4.844  17.201  30.278  0.00  0.00    +0.022 A 
ATOM     25  C   UNL     1      -5.802  16.816  29.356  0.00  0.00    +0.041 A 
ATOM     26 CL   UNL     1      -6.479  17.980  28.285  0.00  0.00    -0.084 Cl
ATOM     27  C   UNL     1      -6.223  15.492  29.300  0.00  0.00    +0.022 A 
ATOM     28  C   UNL     1      -5.675  14.551  30.183  0.00  0.00    +0.024 A 
ENDBRANCH  19  22
ENDBRANCH  15  16
ENDBRANCH  13  15
ENDBRANCH  12  13
ENDBRANCH  10  12
ENDBRANCH   6   8
ENDBRANCH   5   6
ENDBRANCH   1   5
BRANCH   3  29
ATOM     29  C   UNL     1      -3.472  12.237  26.621  0.00  0.00    +0.141 C 
BRANCH  29  30
ATOM     30  C   UNL     1      -4.973  12.026  26.783  0.00  0.00    +0.163 C 
BRANCH  30  31
ATOM     31  O   UNL     1      -5.672  13.259  26.545  0.00  0.00    -0.388 OA
ATOM     32  H   UNL     1      -6.517  13.074  26.130  0.00  0.00    +0.210 HD
ENDBRANCH  30  31
BRANCH  30  33
ATOM     33  C   UNL     1      -5.446  10.930  25.814  0.00  0.00    +0.175 C 
BRANCH  33  34
ATOM     34  C   UNL     1      -4.978  11.190  24.374  0.00  0.00    +0.176 C 
ATOM     35  O   UNL     1      -5.812  12.242  23.816  0.00  0.00    -0.332 OA
ATOM     36  C   UNL     1      -5.441  12.701  22.474  0.00  0.00    +0.277 C 
ATOM     37  C   UNL     1      -5.379  11.505  21.492  0.00  0.00    +0.110 C 
ATOM     38  C   UNL     1      -4.528  10.348  22.056  0.00  0.00    +0.143 C 
ATOM     39  C   UNL     1      -4.998   9.953  23.456  0.00  0.00    +0.133 C 
BRANCH  39  40
ATOM     40  N   UNL     1      -4.126   8.910  24.018  0.00  0.00    -0.308 N 
ATOM     41  H   UNL     1      -3.149   9.132  24.148  0.00  0.00    +0.149 HD
ATOM     42  C   UNL     1      -4.541   7.689  24.367  0.00  0.00    +0.210 C 
ATOM     43  C   UNL     1      -6.031   7.374  24.132  0.00  0.00    +0.109 C 
ATOM     44  O   UNL     1      -3.791   6.840  24.849  0.00  0.00    -0.276 OA
ENDBRANCH  39  40
BRANCH  36  45
ATOM     45  C   UNL     1      -4.076  13.419  22.500  0.00  0.00    +0.414 C 
ATOM     46  O   UNL     1      -3.307  13.324  21.543  0.00  0.00    -0.240 OA
ATOM     47  O   UNL     1      -3.743  14.092  23.476  0.00  0.00    -0.240 OA
ENDBRANCH  36  45
BRANCH  36  48
ATOM     48  O   UNL     1      -6.466  13.618  22.014  0.00  0.00    -0.343 OA
ATOM     49  C   UNL     1      -7.379  14.082  23.040  0.00  0.00    +0.198 C 
ENDBRANCH  36  48
BRANCH  38  50
ATOM     50  O   UNL     1      -4.622   9.215  21.192  0.00  0.00    -0.390 OA
ATOM     51  H   UNL     1      -3.751   9.002  20.847  0.00  0.00    +0.210 HD
ENDBRANCH  38  50
ENDBRANCH  33  34
BRANCH  33  52
ATOM     52  O   UNL     1      -6.883  10.815  25.856  0.00  0.00    -0.387 OA
ATOM     53  H   UNL     1      -7.275  11.498  25.306  0.00  0.00    +0.210 HD
ENDBRANCH  33  52
ENDBRANCH  30  33
ENDBRANCH  29  30
ENDBRANCH   3  29
TORSDOF 18
