REMARK VINA RESULT:    -4.816      1.986      2.659
REMARK INTER + INTRA:         -11.609
REMARK INTER:                  -8.892
REMARK INTRA:                  -2.718
REMARK UNBOUND:                -2.711
REMARK  Name = lig_assembled_36.pdb
REMARK  18 active torsions:
REMARK  status: ('A' for Active; 'I' for Inactive)
REMARK    1  A    between atoms: _2  and  _10
REMARK    2  A    between atoms: _5  and  _21
REMARK    3  A    between atoms: _7  and  _8
REMARK    4  A    between atoms: _7  and  _21
REMARK    5  A    between atoms: _10  and  _11
REMARK    6  A    between atoms: _14  and  _15
REMARK    7  A    between atoms: _17  and  _37
REMARK    8  A    between atoms: _19  and  _25
REMARK    9  A    between atoms: _20  and  _24
REMARK   10  A    between atoms: _24  and  _25
REMARK   11  A    between atoms: _27  and  _28
REMARK   12  A    between atoms: _29  and  _30
REMARK   13  A    between atoms: _31  and  _33
REMARK   14  A    between atoms: _33  and  _34
REMARK   15  A    between atoms: _33  and  _35
REMARK   16  A    between atoms: _35  and  _36
REMARK   17  A    between atoms: _35  and  _37
REMARK   18  A    between atoms: _38  and  _40
REMARK                            x       y       z     vdW  Elec       q    Type
REMARK                         _______ _______ _______ _____ _____    ______ ____
ROOT
ATOM      1  C   UNL     1      -5.405  12.830  26.386  0.00  0.00    +0.163 C 
ENDROOT
BRANCH   1   2
ATOM      2  O   UNL     1      -6.080  14.089  26.547  0.00  0.00    -0.388 OA
ATOM      3  H   UNL     1      -5.688  14.571  27.279  0.00  0.00    +0.210 HD
ENDBRANCH   1   2
BRANCH   1   4
ATOM      4  C   UNL     1      -5.632  11.925  27.609  0.00  0.00    +0.175 C 
BRANCH   4   5
ATOM      5  C   UNL     1      -4.342  11.220  28.054  0.00  0.00    +0.176 C 
ATOM      6  O   UNL     1      -4.279   9.934  27.378  0.00  0.00    -0.332 OA
ATOM      7  C   UNL     1      -3.055   9.160  27.602  0.00  0.00    +0.277 C 
ATOM      8  C   UNL     1      -2.805   8.967  29.118  0.00  0.00    +0.110 C 
ATOM      9  C   UNL     1      -2.893  10.304  29.884  0.00  0.00    +0.143 C 
ATOM     10  C   UNL     1      -4.205  11.027  29.576  0.00  0.00    +0.133 C 
BRANCH  10  11
ATOM     11  N   UNL     1      -4.239  12.339  30.242  0.00  0.00    -0.308 N 
ATOM     12  H   UNL     1      -3.549  13.025  29.969  0.00  0.00    +0.149 HD
ATOM     13  C   UNL     1      -5.122  12.682  31.184  0.00  0.00    +0.210 C 
ATOM     14  C   UNL     1      -6.144  11.605  31.596  0.00  0.00    +0.109 C 
ATOM     15  O   UNL     1      -5.137  13.793  31.714  0.00  0.00    -0.276 OA
ENDBRANCH  10  11
BRANCH   7  16
ATOM     16  C   UNL     1      -1.839   9.863  26.964  0.00  0.00    +0.414 C 
ATOM     17  O   UNL     1      -2.000  10.689  26.066  0.00  0.00    -0.240 OA
ATOM     18  O   UNL     1      -0.697   9.606  27.348  0.00  0.00    -0.240 OA
ENDBRANCH   7  16
BRANCH   7  19
ATOM     19  O   UNL     1      -3.234   7.852  26.999  0.00  0.00    -0.343 OA
ATOM     20  C   UNL     1      -4.553   7.275  27.169  0.00  0.00    +0.198 C 
ENDBRANCH   7  19
BRANCH   9  21
ATOM     21  O   UNL     1      -2.809  10.062  31.288  0.00  0.00    -0.390 OA
ATOM     22  H   UNL     1      -1.994  10.437  31.630  0.00  0.00    +0.210 HD
ENDBRANCH   9  21
ENDBRANCH   4   5
BRANCH   4  23
ATOM     23  O   UNL     1      -6.656  10.951  27.322  0.00  0.00    -0.387 OA
ATOM     24  H   UNL     1      -7.476  11.403  27.107  0.00  0.00    +0.210 HD
ENDBRANCH   4  23
ENDBRANCH   1   4
BRANCH   1  25
ATOM     25  C   UNL     1      -5.907  12.126  25.130  0.00  0.00    +0.141 C 
BRANCH  25  28
ATOM     26  C   UNL     1      -5.106   9.900  24.415  0.00  0.00    +0.401 C 
ATOM     27  O   UNL     1      -6.152   9.322  24.719  0.00  0.00    -0.226 OA
ATOM     28  N   UNL     1      -4.902  11.208  24.579  0.00  0.00    -0.279 N 
ATOM     29  H   UNL     1      -4.006  11.589  24.308  0.00  0.00    +0.152 HD
BRANCH  26  30
ATOM     30  O   UNL     1      -4.030   9.142  23.856  0.00  0.00    -0.444 OA
BRANCH  30  31
ATOM     31  C   UNL     1      -4.433   8.600  22.595  0.00  0.00    +0.292 C 
BRANCH  31  33
ATOM     32  N   UNL     1      -3.497  10.540  21.371  0.00  0.00    -0.131 NA
ATOM     33  C   UNL     1      -4.535   9.671  21.587  0.00  0.00    +0.120 A 
ATOM     34  C   UNL     1      -5.565   9.978  20.727  0.00  0.00    +0.137 A 
ATOM     35  N   UNL     1      -5.054  10.977  19.952  0.00  0.00    -0.247 N 
ATOM     36  N   UNL     1      -3.834  11.350  20.378  0.00  0.00    -0.065 NA
BRANCH  35  37
ATOM     37  C   UNL     1      -5.658  11.605  18.793  0.00  0.00    +0.180 C 
BRANCH  37  38
ATOM     38  C   UNL     1      -4.882  11.292  17.534  0.00  0.00    -0.026 A 
ATOM     39  C   UNL     1      -4.668   9.966  17.130  0.00  0.00    +0.007 A 
ATOM     40  C   UNL     1      -3.954   9.686  15.961  0.00  0.00    +0.019 A 
ATOM     41  C   UNL     1      -3.440  10.727  15.182  0.00  0.00    +0.052 A 
ATOM     42  C   UNL     1      -3.628  12.051  15.590  0.00  0.00    +0.019 A 
ATOM     43  C   UNL     1      -4.341  12.331  16.759  0.00  0.00    +0.007 A 
BRANCH  41  44
ATOM     44  C   UNL     1      -2.725  10.438  13.971  0.00  0.00    +0.099 C 
ATOM     45  N   UNL     1      -2.151  10.215  12.989  0.00  0.00    -0.191 NA
ENDBRANCH  41  44
ENDBRANCH  37  38
ENDBRANCH  35  37
ENDBRANCH  31  33
ENDBRANCH  30  31
ENDBRANCH  26  30
ENDBRANCH  25  28
ENDBRANCH   1  25
TORSDOF 16
