REMARK VINA RESULT:    -4.899      2.526      4.860
REMARK INTER + INTRA:         -10.830
REMARK INTER:                  -8.286
REMARK INTRA:                  -2.544
REMARK UNBOUND:                -1.779
REMARK  Name = lig_assembled_14.pdb
REMARK  18 active torsions:
REMARK  status: ('A' for Active; 'I' for Inactive)
REMARK    1  A    between atoms: _2  and  _10
REMARK    2  A    between atoms: _3  and  _11
REMARK    3  A    between atoms: _5  and  _19
REMARK    4  A    between atoms: _7  and  _8
REMARK    5  A    between atoms: _7  and  _19
REMARK    6  A    between atoms: _10  and  _11
REMARK    7  A    between atoms: _15  and  _35
REMARK    8  A    between atoms: _17  and  _23
REMARK    9  A    between atoms: _18  and  _22
REMARK   10  A    between atoms: _22  and  _23
REMARK   11  A    between atoms: _25  and  _26
REMARK   12  A    between atoms: _27  and  _28
REMARK   13  A    between atoms: _29  and  _31
REMARK   14  A    between atoms: _31  and  _32
REMARK   15  A    between atoms: _31  and  _33
REMARK   16  A    between atoms: _33  and  _34
REMARK   17  A    between atoms: _33  and  _35
REMARK   18  A    between atoms: _36  and  _38
REMARK                            x       y       z     vdW  Elec       q    Type
REMARK                         _______ _______ _______ _____ _____    ______ ____
ROOT
ATOM      1  C   UNL     1      -4.197   9.013  23.829  0.00  0.00    +0.163 C 
ENDROOT
BRANCH   1   2
ATOM      2  O   UNL     1      -3.738   8.338  22.646  0.00  0.00    -0.388 OA
ATOM      3  H   UNL     1      -4.355   8.494  21.928  0.00  0.00    +0.210 HD
ENDBRANCH   1   2
BRANCH   1   4
ATOM      4  C   UNL     1      -5.604   9.598  23.617  0.00  0.00    +0.175 C 
BRANCH   4   5
ATOM      5  C   UNL     1      -5.563  10.951  22.891  0.00  0.00    +0.176 C 
ATOM      6  O   UNL     1      -5.233  10.701  21.497  0.00  0.00    -0.332 OA
ATOM      7  C   UNL     1      -5.253  11.875  20.620  0.00  0.00    +0.277 C 
ATOM      8  C   UNL     1      -4.335  12.988  21.184  0.00  0.00    +0.110 C 
ATOM      9  C   UNL     1      -4.628  13.267  22.673  0.00  0.00    +0.143 C 
ATOM     10  C   UNL     1      -4.584  11.976  23.492  0.00  0.00    +0.133 C 
BRANCH  10  11
ATOM     11  N   UNL     1      -4.950  12.242  24.892  0.00  0.00    -0.308 N 
ATOM     12  H   UNL     1      -5.923  12.421  25.100  0.00  0.00    +0.149 HD
ATOM     13  C   UNL     1      -4.081  12.263  25.907  0.00  0.00    +0.210 C 
ATOM     14  C   UNL     1      -2.603  12.013  25.553  0.00  0.00    +0.109 C 
ATOM     15  O   UNL     1      -4.418  12.474  27.072  0.00  0.00    -0.276 OA
ENDBRANCH  10  11
BRANCH   7  16
ATOM     16  C   UNL     1      -6.688  12.420  20.467  0.00  0.00    +0.414 C 
ATOM     17  O   UNL     1      -6.880  13.622  20.288  0.00  0.00    -0.240 OA
ATOM     18  O   UNL     1      -7.654  11.658  20.523  0.00  0.00    -0.240 OA
ENDBRANCH   7  16
BRANCH   9  19
ATOM     19  O   UNL     1      -3.663  14.185  23.190  0.00  0.00    -0.390 OA
ATOM     20  H   UNL     1      -4.018  14.617  23.970  0.00  0.00    +0.210 HD
ENDBRANCH   9  19
BRANCH   7  21
ATOM     21  O   UNL     1      -4.742  11.475  19.322  0.00  0.00    -0.343 OA
ATOM     22  C   UNL     1      -4.924  10.074  18.998  0.00  0.00    +0.198 C 
ENDBRANCH   7  21
ENDBRANCH   4   5
BRANCH   4  23
ATOM     23  O   UNL     1      -6.281   9.734  24.882  0.00  0.00    -0.387 OA
ATOM     24  H   UNL     1      -7.228   9.787  24.734  0.00  0.00    +0.210 HD
ENDBRANCH   4  23
ENDBRANCH   1   4
BRANCH   1  25
ATOM     25  C   UNL     1      -4.220   8.045  25.007  0.00  0.00    +0.141 C 
BRANCH  25  28
ATOM     26  C   UNL     1      -2.619   8.507  26.831  0.00  0.00    +0.401 C 
ATOM     27  O   UNL     1      -1.745   7.763  26.379  0.00  0.00    -0.226 OA
ATOM     28  N   UNL     1      -3.808   8.694  26.257  0.00  0.00    -0.279 N 
ATOM     29  H   UNL     1      -4.462   9.318  26.709  0.00  0.00    +0.152 HD
BRANCH  26  30
ATOM     30  O   UNL     1      -2.364   9.221  28.044  0.00  0.00    -0.444 OA
BRANCH  30  31
ATOM     31  C   UNL     1      -3.437   8.997  28.963  0.00  0.00    +0.292 C 
BRANCH  31  33
ATOM     32  N   UNL     1      -3.104   9.115  31.412  0.00  0.00    -0.131 NA
ATOM     33  C   UNL     1      -3.215   9.757  30.207  0.00  0.00    +0.120 A 
ATOM     34  C   UNL     1      -3.100  11.115  30.408  0.00  0.00    +0.137 A 
ATOM     35  N   UNL     1      -2.934  11.232  31.754  0.00  0.00    -0.250 N 
ATOM     36  N   UNL     1      -2.928  10.029  32.354  0.00  0.00    -0.065 NA
BRANCH  35  37
ATOM     37  C   UNL     1      -2.831  12.441  32.542  0.00  0.00    +0.160 C 
BRANCH  37  38
ATOM     38  C   UNL     1      -4.200  12.914  33.044  0.00  0.00    +0.107 C 
BRANCH  38  39
ATOM     39  N   UNL     1      -4.624  14.190  32.441  0.00  0.00    -0.301 NA
ATOM     40  C   UNL     1      -3.499  15.022  32.004  0.00  0.00    +0.084 C 
ATOM     41  C   UNL     1      -4.168  16.021  31.081  0.00  0.00    +0.017 C 
ATOM     42  C   UNL     1      -5.219  15.198  30.359  0.00  0.00    +0.017 C 
ATOM     43  C   UNL     1      -5.454  13.979  31.246  0.00  0.00    +0.084 C 
ENDBRANCH  38  39
ENDBRANCH  37  38
ENDBRANCH  35  37
ENDBRANCH  31  33
ENDBRANCH  30  31
ENDBRANCH  26  30
ENDBRANCH  25  28
ENDBRANCH   1  25
TORSDOF 16
