REMARK VINA RESULT:    -4.607      9.246     14.986
REMARK INTER + INTRA:          -9.983
REMARK INTER:                  -7.973
REMARK INTRA:                  -2.010
REMARK UNBOUND:                -2.010
REMARK  Name = lig_assembled_49.pdb
REMARK  16 active torsions:
REMARK  status: ('A' for Active; 'I' for Inactive)
REMARK    1  A    between atoms: _2  and  _9
REMARK    2  A    between atoms: _4  and  _17
REMARK    3  A    between atoms: _6  and  _7
REMARK    4  A    between atoms: _6  and  _17
REMARK    5  A    between atoms: _13  and  _33
REMARK    6  A    between atoms: _15  and  _21
REMARK    7  A    between atoms: _16  and  _20
REMARK    8  A    between atoms: _20  and  _21
REMARK    9  A    between atoms: _23  and  _24
REMARK   10  A    between atoms: _25  and  _26
REMARK   11  A    between atoms: _27  and  _29
REMARK   12  A    between atoms: _29  and  _30
REMARK   13  A    between atoms: _29  and  _31
REMARK   14  A    between atoms: _31  and  _32
REMARK   15  A    between atoms: _31  and  _33
REMARK   16  A    between atoms: _34  and  _36
REMARK                            x       y       z     vdW  Elec       q    Type
REMARK                         _______ _______ _______ _____ _____    ______ ____
ROOT
ATOM      1  C   UNL     1      -3.504  11.604  13.970  0.00  0.00    +0.175 C 
ENDROOT
BRANCH   1   2
ATOM      2  C   UNL     1      -3.249  12.597  12.827  0.00  0.00    +0.176 C 
ATOM      3  O   UNL     1      -2.011  13.304  13.116  0.00  0.00    -0.332 OA
ATOM      4  C   UNL     1      -1.549  14.226  12.074  0.00  0.00    +0.277 C 
ATOM      5  C   UNL     1      -2.661  15.242  11.718  0.00  0.00    +0.110 C 
ATOM      6  C   UNL     1      -4.005  14.539  11.433  0.00  0.00    +0.143 C 
ATOM      7  C   UNL     1      -4.389  13.603  12.580  0.00  0.00    +0.133 C 
BRANCH   7   8
ATOM      8  N   UNL     1      -5.626  12.874  12.258  0.00  0.00    -0.308 N 
ATOM      9  H   UNL     1      -5.621  12.272  11.446  0.00  0.00    +0.149 HD
ATOM     10  C   UNL     1      -6.754  12.955  12.968  0.00  0.00    +0.210 C 
ATOM     11  C   UNL     1      -6.736  13.901  14.184  0.00  0.00    +0.109 C 
ATOM     12  O   UNL     1      -7.771  12.322  12.684  0.00  0.00    -0.276 OA
ENDBRANCH   7   8
BRANCH   4  13
ATOM     13  C   UNL     1      -1.132  13.452  10.805  0.00  0.00    +0.414 C 
ATOM     14  O   UNL     1      -1.123  14.015   9.711  0.00  0.00    -0.240 OA
ATOM     15  O   UNL     1      -0.805  12.267  10.876  0.00  0.00    -0.240 OA
ENDBRANCH   4  13
BRANCH   6  16
ATOM     16  O   UNL     1      -5.033  15.516  11.260  0.00  0.00    -0.390 OA
ATOM     17  H   UNL     1      -5.102  16.052  12.053  0.00  0.00    +0.210 HD
ENDBRANCH   6  16
BRANCH   4  18
ATOM     18  O   UNL     1      -0.410  14.958  12.595  0.00  0.00    -0.343 OA
ATOM     19  C   UNL     1      -0.422  16.382  12.324  0.00  0.00    +0.198 C 
ENDBRANCH   4  18
ENDBRANCH   1   2
BRANCH   1  20
ATOM     20  O   UNL     1      -3.036  12.153  15.218  0.00  0.00    -0.387 OA
ATOM     21  H   UNL     1      -2.167  12.540  15.092  0.00  0.00    +0.210 HD
ENDBRANCH   1  20
BRANCH   1  22
ATOM     22  C   UNL     1      -2.843  10.240  13.710  0.00  0.00    +0.163 C 
BRANCH  22  23
ATOM     23  O   UNL     1      -2.378  10.144  12.354  0.00  0.00    -0.388 OA
ATOM     24  H   UNL     1      -1.506  10.541  12.285  0.00  0.00    +0.210 HD
ENDBRANCH  22  23
BRANCH  22  25
ATOM     25  C   UNL     1      -3.843   9.125  13.999  0.00  0.00    +0.141 C 
BRANCH  25  28
ATOM     26  C   UNL     1      -4.492   8.840  16.366  0.00  0.00    +0.401 C 
ATOM     27  O   UNL     1      -3.631   7.988  16.597  0.00  0.00    -0.226 OA
ATOM     28  N   UNL     1      -4.666   9.421  15.178  0.00  0.00    -0.279 N 
ATOM     29  H   UNL     1      -5.406  10.102  15.084  0.00  0.00    +0.152 HD
BRANCH  26  30
ATOM     30  O   UNL     1      -5.370   9.243  17.420  0.00  0.00    -0.444 OA
BRANCH  30  31
ATOM     31  C   UNL     1      -4.925  10.489  17.964  0.00  0.00    +0.292 C 
BRANCH  31  33
ATOM     32  N   UNL     1      -4.872   9.177  20.060  0.00  0.00    -0.131 NA
ATOM     33  C   UNL     1      -4.784  10.389  19.429  0.00  0.00    +0.120 A 
ATOM     34  C   UNL     1      -4.567  11.371  20.368  0.00  0.00    +0.137 A 
ATOM     35  N   UNL     1      -4.541  10.695  21.552  0.00  0.00    -0.248 N 
ATOM     36  N   UNL     1      -4.721   9.376  21.361  0.00  0.00    -0.065 NA
BRANCH  35  37
ATOM     37  C   UNL     1      -4.372  11.240  22.877  0.00  0.00    +0.109 C 
ATOM     38  C   UNL     1      -2.910  11.448  23.279  0.00  0.00    +0.027 C 
ATOM     39  C   UNL     1      -3.015  12.401  24.458  0.00  0.00    +0.002 C 
ATOM     40  C   UNL     1      -4.119  13.371  24.057  0.00  0.00    +0.002 C 
ATOM     41  C   UNL     1      -5.030  12.609  23.092  0.00  0.00    +0.027 C 
ENDBRANCH  35  37
ENDBRANCH  31  33
ENDBRANCH  30  31
ENDBRANCH  26  30
ENDBRANCH  25  28
ENDBRANCH  22  25
ENDBRANCH   1  22
TORSDOF 14
