REMARK VINA RESULT:    -5.188      4.846     13.007
REMARK INTER + INTRA:         -13.470
REMARK INTER:                 -11.142
REMARK INTRA:                  -2.328
REMARK UNBOUND:                -3.885
REMARK  Name = lig_assembled_79.pdb
REMARK  20 active torsions:
REMARK  status: ('A' for Active; 'I' for Inactive)
REMARK    1  A    between atoms: _2  and  _10
REMARK    2  A    between atoms: _5  and  _26
REMARK    3  A    between atoms: _7  and  _8
REMARK    4  A    between atoms: _7  and  _26
REMARK    5  A    between atoms: _10  and  _11
REMARK    6  A    between atoms: _10  and  _12
REMARK    7  A    between atoms: _10  and  _13
REMARK    8  A    between atoms: _13  and  _14
REMARK    9  A    between atoms: _22  and  _42
REMARK   10  A    between atoms: _24  and  _30
REMARK   11  A    between atoms: _25  and  _29
REMARK   12  A    between atoms: _29  and  _30
REMARK   13  A    between atoms: _32  and  _33
REMARK   14  A    between atoms: _34  and  _35
REMARK   15  A    between atoms: _36  and  _38
REMARK   16  A    between atoms: _38  and  _39
REMARK   17  A    between atoms: _38  and  _40
REMARK   18  A    between atoms: _40  and  _41
REMARK   19  A    between atoms: _40  and  _42
REMARK   20  A    between atoms: _43  and  _45
REMARK                            x       y       z     vdW  Elec       q    Type
REMARK                         _______ _______ _______ _____ _____    ______ ____
ROOT
ATOM      1  C   UNL     1      -5.049  12.015  20.426  0.00  0.00    +0.401 C 
ATOM      2  O   UNL     1      -6.256  12.027  20.677  0.00  0.00    -0.226 OA
ATOM      3  N   UNL     1      -4.475  11.175  19.564  0.00  0.00    -0.279 N 
ATOM      4  H   UNL     1      -3.478  11.249  19.417  0.00  0.00    +0.152 HD
ENDROOT
BRANCH   3   5
ATOM      5  C   UNL     1      -5.210  10.148  18.815  0.00  0.00    +0.141 C 
BRANCH   5   6
ATOM      6  C   UNL     1      -5.140  10.381  17.310  0.00  0.00    +0.163 C 
BRANCH   6   7
ATOM      7  O   UNL     1      -4.060  11.279  17.002  0.00  0.00    -0.388 OA
ATOM      8  H   UNL     1      -3.487  11.365  17.767  0.00  0.00    +0.210 HD
ENDBRANCH   6   7
BRANCH   6   9
ATOM      9  C   UNL     1      -4.958   9.035  16.589  0.00  0.00    +0.175 C 
BRANCH   9  10
ATOM     10  C   UNL     1      -3.997   9.143  15.396  0.00  0.00    +0.176 C 
ATOM     11  O   UNL     1      -4.713   9.776  14.300  0.00  0.00    -0.332 OA
ATOM     12  C   UNL     1      -3.917  10.060  13.102  0.00  0.00    +0.277 C 
ATOM     13  C   UNL     1      -3.221   8.772  12.598  0.00  0.00    +0.110 C 
ATOM     14  C   UNL     1      -2.472   8.047  13.735  0.00  0.00    +0.143 C 
ATOM     15  C   UNL     1      -3.392   7.805  14.932  0.00  0.00    +0.133 C 
BRANCH  15  16
ATOM     16  N   UNL     1      -2.645   7.192  16.041  0.00  0.00    -0.308 N 
ATOM     17  H   UNL     1      -1.815   7.665  16.370  0.00  0.00    +0.149 HD
ATOM     18  C   UNL     1      -2.992   6.051  16.643  0.00  0.00    +0.210 C 
ATOM     19  C   UNL     1      -4.247   5.340  16.102  0.00  0.00    +0.109 C 
ATOM     20  O   UNL     1      -2.355   5.568  17.580  0.00  0.00    -0.276 OA
ENDBRANCH  15  16
BRANCH  12  21
ATOM     21  C   UNL     1      -2.855  11.140  13.395  0.00  0.00    +0.414 C 
ATOM     22  O   UNL     1      -1.871  11.256  12.664  0.00  0.00    -0.240 OA
ATOM     23  O   UNL     1      -2.981  11.894  14.360  0.00  0.00    -0.240 OA
ENDBRANCH  12  21
BRANCH  14  24
ATOM     24  O   UNL     1      -1.975   6.794  13.263  0.00  0.00    -0.390 OA
ATOM     25  H   UNL     1      -1.872   6.190  14.002  0.00  0.00    +0.210 HD
ENDBRANCH  14  24
BRANCH  12  26
ATOM     26  O   UNL     1      -4.818  10.529  12.066  0.00  0.00    -0.343 OA
ATOM     27  C   UNL     1      -5.761   9.540  11.581  0.00  0.00    +0.198 C 
ENDBRANCH  12  26
ENDBRANCH   9  10
BRANCH   9  28
ATOM     28  O   UNL     1      -6.235   8.528  16.153  0.00  0.00    -0.387 OA
ATOM     29  H   UNL     1      -6.249   8.475  15.195  0.00  0.00    +0.210 HD
ENDBRANCH   9  28
ENDBRANCH   6   9
ENDBRANCH   5   6
ENDBRANCH   3   5
BRANCH   1  30
ATOM     30  O   UNL     1      -4.193  12.953  21.084  0.00  0.00    -0.444 OA
BRANCH  30  31
ATOM     31  C   UNL     1      -2.953  12.321  21.411  0.00  0.00    +0.292 C 
BRANCH  31  33
ATOM     32  N   UNL     1      -3.249  10.181  22.602  0.00  0.00    -0.131 NA
ATOM     33  C   UNL     1      -3.096  11.536  22.650  0.00  0.00    +0.120 A 
ATOM     34  C   UNL     1      -3.113  11.945  23.965  0.00  0.00    +0.138 A 
ATOM     35  N   UNL     1      -3.188  10.785  24.685  0.00  0.00    -0.238 N 
ATOM     36  N   UNL     1      -3.350   9.734  23.843  0.00  0.00    -0.064 NA
BRANCH  35  37
ATOM     37  C   UNL     1      -3.315  10.554  26.154  0.00  0.00    +0.122 C 
ATOM     38  C   UNL     1      -4.632   9.769  26.362  0.00  0.00    +0.044 C 
ATOM     39  C   UNL     1      -3.297  11.961  26.781  0.00  0.00    +0.044 C 
BRANCH  37  40
ATOM     40  C   UNL     1      -2.173   9.701  26.744  0.00  0.00    +0.192 C 
ATOM     41  O   UNL     1      -1.042   9.746  26.249  0.00  0.00    -0.289 OA
BRANCH  40  42
ATOM     42  C   UNL     1      -2.371   8.780  27.901  0.00  0.00    +0.045 A 
ATOM     43  C   UNL     1      -2.225   7.408  27.727  0.00  0.00    +0.095 A 
ATOM     44  N   UNL     1      -2.478   6.766  28.900  0.00  0.00    -0.360 N 
ATOM     45  H   UNL     1      -2.450   5.765  29.038  0.00  0.00    +0.165 HD
ATOM     46  C   UNL     1      -2.792   7.678  29.875  0.00  0.00    +0.047 A 
ATOM     47  C   UNL     1      -3.129   7.449  31.217  0.00  0.00    +0.026 A 
ATOM     48  C   UNL     1      -3.417   8.550  32.022  0.00  0.00    +0.002 A 
ATOM     49  C   UNL     1      -3.366   9.833  31.502  0.00  0.00    +0.001 A 
ATOM     50  C   UNL     1      -3.027  10.041  30.160  0.00  0.00    +0.011 A 
ATOM     51  C   UNL     1      -2.730   8.954  29.298  0.00  0.00    +0.010 A 
ENDBRANCH  40  42
ENDBRANCH  37  40
ENDBRANCH  35  37
ENDBRANCH  31  33
ENDBRANCH  30  31
ENDBRANCH   1  30
TORSDOF 16
