REMARK VINA RESULT:    -5.439      0.000      0.000
REMARK INTER + INTRA:         -12.780
REMARK INTER:                  -8.906
REMARK INTRA:                  -3.873
REMARK UNBOUND:                -3.049
REMARK  Name = lig_assembled_28.pdb
REMARK  17 active torsions:
REMARK  status: ('A' for Active; 'I' for Inactive)
REMARK    1  A    between atoms: _2  and  _9
REMARK    2  A    between atoms: _4  and  _22
REMARK    3  A    between atoms: _6  and  _7
REMARK    4  A    between atoms: _6  and  _22
REMARK    5  A    between atoms: _9  and  _10
REMARK    6  A    between atoms: _18  and  _38
REMARK    7  A    between atoms: _20  and  _26
REMARK    8  A    between atoms: _21  and  _25
REMARK    9  A    between atoms: _25  and  _26
REMARK   10  A    between atoms: _28  and  _29
REMARK   11  A    between atoms: _30  and  _31
REMARK   12  A    between atoms: _32  and  _34
REMARK   13  A    between atoms: _34  and  _35
REMARK   14  A    between atoms: _34  and  _36
REMARK   15  A    between atoms: _36  and  _37
REMARK   16  A    between atoms: _36  and  _38
REMARK   17  A    between atoms: _39  and  _41
REMARK                            x       y       z     vdW  Elec       q    Type
REMARK                         _______ _______ _______ _____ _____    ______ ____
ROOT
ATOM      1  C   UNL     1      -2.912  11.203  23.034  0.00  0.00    +0.163 C 
ENDROOT
BRANCH   1   2
ATOM      2  O   UNL     1      -2.372  11.785  24.232  0.00  0.00    -0.388 OA
ATOM      3  H   UNL     1      -1.415  11.826  24.165  0.00  0.00    +0.210 HD
ENDBRANCH   1   2
BRANCH   1   4
ATOM      4  C   UNL     1      -3.638  12.269  22.218  0.00  0.00    +0.141 C 
BRANCH   4   7
ATOM      5  C   UNL     1      -5.304  13.944  22.941  0.00  0.00    +0.401 C 
ATOM      6  O   UNL     1      -4.660  14.906  22.516  0.00  0.00    -0.226 OA
ATOM      7  N   UNL     1      -4.899  12.677  22.850  0.00  0.00    -0.279 N 
ATOM      8  H   UNL     1      -5.493  11.957  23.237  0.00  0.00    +0.152 HD
BRANCH   5   9
ATOM      9  O   UNL     1      -6.563  14.177  23.577  0.00  0.00    -0.444 OA
BRANCH   9  10
ATOM     10  C   UNL     1      -6.356  14.890  24.799  0.00  0.00    +0.292 C 
BRANCH  10  12
ATOM     11  N   UNL     1      -5.004  13.168  25.961  0.00  0.00    -0.131 NA
ATOM     12  C   UNL     1      -6.127  13.948  25.911  0.00  0.00    +0.120 A 
ATOM     13  C   UNL     1      -6.893  13.707  27.029  0.00  0.00    +0.137 A 
ATOM     14  N   UNL     1      -6.138  12.844  27.770  0.00  0.00    -0.247 N 
ATOM     15  N   UNL     1      -5.026  12.485  27.099  0.00  0.00    -0.065 NA
BRANCH  14  16
ATOM     16  C   UNL     1      -6.315  12.368  29.136  0.00  0.00    +0.180 C 
BRANCH  16  17
ATOM     17  C   UNL     1      -5.047  12.391  29.956  0.00  0.00    -0.022 A 
ATOM     18  C   UNL     1      -4.509  13.615  30.394  0.00  0.00    +0.055 A 
ATOM     19  C   UNL     1      -3.418  13.578  31.235  0.00  0.00    +0.167 A 
ATOM     20  O   UNL     1      -2.810  14.662  31.792  0.00  0.00    -0.453 OA
ATOM     21  C   UNL     1      -1.847  14.016  32.651  0.00  0.00    +0.466 C 
ATOM     22  O   UNL     1      -1.796  12.583  32.478  0.00  0.00    -0.453 OA
ATOM     23  C   UNL     1      -2.838  12.396  31.624  0.00  0.00    +0.166 A 
ATOM     24  C   UNL     1      -3.315  11.178  31.188  0.00  0.00    +0.050 A 
ATOM     25  C   UNL     1      -4.436  11.178  30.352  0.00  0.00    +0.009 A 
ENDBRANCH  16  17
ENDBRANCH  14  16
ENDBRANCH  10  12
ENDBRANCH   9  10
ENDBRANCH   5   9
ENDBRANCH   4   7
ENDBRANCH   1   4
BRANCH   1  26
ATOM     26  C   UNL     1      -3.886  10.060  23.367  0.00  0.00    +0.175 C 
BRANCH  26  27
ATOM     27  C   UNL     1      -3.854   9.691  24.857  0.00  0.00    +0.176 C 
ATOM     28  O   UNL     1      -2.885   8.621  25.033  0.00  0.00    -0.332 OA
ATOM     29  C   UNL     1      -2.642   8.207  26.418  0.00  0.00    +0.277 C 
ATOM     30  C   UNL     1      -3.973   7.826  27.111  0.00  0.00    +0.110 C 
ATOM     31  C   UNL     1      -5.046   8.920  26.924  0.00  0.00    +0.143 C 
ATOM     32  C   UNL     1      -5.215   9.276  25.447  0.00  0.00    +0.133 C 
BRANCH  32  33
ATOM     33  N   UNL     1      -6.176  10.379  25.290  0.00  0.00    -0.308 N 
ATOM     34  H   UNL     1      -6.015  11.224  25.820  0.00  0.00    +0.149 HD
ATOM     35  C   UNL     1      -7.247  10.337  24.492  0.00  0.00    +0.210 C 
ATOM     36  C   UNL     1      -7.479   9.025  23.718  0.00  0.00    +0.109 C 
ATOM     37  O   UNL     1      -8.027  11.282  24.369  0.00  0.00    -0.276 OA
ENDBRANCH  32  33
BRANCH  29  38
ATOM     38  C   UNL     1      -1.952   9.335  27.213  0.00  0.00    +0.414 C 
ATOM     39  O   UNL     1      -1.211  10.133  26.640  0.00  0.00    -0.240 OA
ATOM     40  O   UNL     1      -2.135   9.446  28.426  0.00  0.00    -0.240 OA
ENDBRANCH  29  38
BRANCH  29  41
ATOM     41  O   UNL     1      -1.788   7.034  26.393  0.00  0.00    -0.343 OA
ATOM     42  C   UNL     1      -2.438   5.795  26.773  0.00  0.00    +0.198 C 
ENDBRANCH  29  41
BRANCH  31  43
ATOM     43  O   UNL     1      -6.295   8.464  27.445  0.00  0.00    -0.390 OA
ATOM     44  H   UNL     1      -6.876   9.214  27.589  0.00  0.00    +0.210 HD
ENDBRANCH  31  43
ENDBRANCH  26  27
BRANCH  26  45
ATOM     45  O   UNL     1      -3.586   8.902  22.562  0.00  0.00    -0.387 OA
ATOM     46  H   UNL     1      -3.173   8.230  23.109  0.00  0.00    +0.210 HD
ENDBRANCH  26  45
ENDBRANCH   1  26
TORSDOF 15
