REMARK VINA RESULT:    -5.205      4.322     11.066
REMARK INTER + INTRA:         -12.725
REMARK INTER:                 -10.458
REMARK INTRA:                  -2.267
REMARK UNBOUND:                -3.108
REMARK  Name = lig_assembled_58.pdb
REMARK  18 active torsions:
REMARK  status: ('A' for Active; 'I' for Inactive)
REMARK    1  A    between atoms: _2  and  _9
REMARK    2  A    between atoms: _4  and  _25
REMARK    3  A    between atoms: _6  and  _7
REMARK    4  A    between atoms: _6  and  _25
REMARK    5  A    between atoms: _9  and  _10
REMARK    6  A    between atoms: _9  and  _16
REMARK    7  A    between atoms: _21  and  _41
REMARK    8  A    between atoms: _23  and  _29
REMARK    9  A    between atoms: _24  and  _28
REMARK   10  A    between atoms: _28  and  _29
REMARK   11  A    between atoms: _31  and  _32
REMARK   12  A    between atoms: _33  and  _34
REMARK   13  A    between atoms: _35  and  _37
REMARK   14  A    between atoms: _37  and  _38
REMARK   15  A    between atoms: _37  and  _39
REMARK   16  A    between atoms: _39  and  _40
REMARK   17  A    between atoms: _39  and  _41
REMARK   18  A    between atoms: _42  and  _44
REMARK                            x       y       z     vdW  Elec       q    Type
REMARK                         _______ _______ _______ _____ _____    ______ ____
ROOT
ATOM      1  C   UNL     1      -3.285  13.213  24.370  0.00  0.00    +0.141 C 
ENDROOT
BRANCH   1   4
ATOM      2  C   UNL     1      -4.244  13.038  22.099  0.00  0.00    +0.401 C 
ATOM      3  O   UNL     1      -3.214  12.581  21.598  0.00  0.00    -0.226 OA
ATOM      4  N   UNL     1      -4.364  13.367  23.386  0.00  0.00    -0.279 N 
ATOM      5  H   UNL     1      -5.247  13.744  23.702  0.00  0.00    +0.152 HD
BRANCH   2   6
ATOM      6  O   UNL     1      -5.391  13.239  21.269  0.00  0.00    -0.444 OA
BRANCH   6   7
ATOM      7  C   UNL     1      -5.889  11.973  20.828  0.00  0.00    +0.292 C 
BRANCH   7   9
ATOM      8  N   UNL     1      -6.545  12.295  18.452  0.00  0.00    -0.131 NA
ATOM      9  C   UNL     1      -5.662  11.810  19.380  0.00  0.00    +0.120 A 
ATOM     10  C   UNL     1      -4.601  11.229  18.726  0.00  0.00    +0.138 A 
ATOM     11  N   UNL     1      -4.813  11.527  17.407  0.00  0.00    -0.240 N 
ATOM     12  N   UNL     1      -6.028  12.099  17.246  0.00  0.00    -0.064 NA
BRANCH  11  13
ATOM     13  C   UNL     1      -3.917  11.344  16.251  0.00  0.00    +0.169 C 
BRANCH  13  14
ATOM     14  C   UNL     1      -3.727   9.846  15.968  0.00  0.00    -0.019 A 
ATOM     15  C   UNL     1      -2.618   9.403  15.227  0.00  0.00    +0.006 A 
ATOM     16  C   UNL     1      -2.467   8.049  14.914  0.00  0.00    +0.000 A 
ATOM     17  C   UNL     1      -3.408   7.117  15.347  0.00  0.00    +0.000 A 
ATOM     18  C   UNL     1      -4.513   7.536  16.080  0.00  0.00    +0.000 A 
ATOM     19  C   UNL     1      -4.676   8.889  16.377  0.00  0.00    +0.006 A 
ENDBRANCH  13  14
BRANCH  13  20
ATOM     20  C   UNL     1      -4.336  12.184  15.036  0.00  0.00    -0.019 A 
ATOM     21  C   UNL     1      -3.772  13.449  14.796  0.00  0.00    +0.006 A 
ATOM     22  C   UNL     1      -4.159  14.210  13.689  0.00  0.00    +0.000 A 
ATOM     23  C   UNL     1      -5.098  13.713  12.791  0.00  0.00    +0.000 A 
ATOM     24  C   UNL     1      -5.627  12.443  12.978  0.00  0.00    +0.000 A 
ATOM     25  C   UNL     1      -5.237  11.680  14.077  0.00  0.00    +0.006 A 
ENDBRANCH  13  20
ENDBRANCH  11  13
ENDBRANCH   7   9
ENDBRANCH   6   7
ENDBRANCH   2   6
ENDBRANCH   1   4
BRANCH   1  26
ATOM     26  C   UNL     1      -3.366  11.876  25.099  0.00  0.00    +0.163 C 
BRANCH  26  27
ATOM     27  O   UNL     1      -2.077  11.242  25.108  0.00  0.00    -0.388 OA
ATOM     28  H   UNL     1      -1.405  11.886  25.345  0.00  0.00    +0.210 HD
ENDBRANCH  26  27
BRANCH  26  29
ATOM     29  C   UNL     1      -3.879  12.102  26.531  0.00  0.00    +0.175 C 
BRANCH  29  30
ATOM     30  C   UNL     1      -3.508  10.943  27.468  0.00  0.00    +0.176 C 
ATOM     31  O   UNL     1      -4.071   9.722  26.913  0.00  0.00    -0.332 OA
ATOM     32  C   UNL     1      -3.727   8.486  27.622  0.00  0.00    +0.277 C 
ATOM     33  C   UNL     1      -4.100   8.601  29.121  0.00  0.00    +0.110 C 
ATOM     34  C   UNL     1      -3.550   9.899  29.747  0.00  0.00    +0.143 C 
ATOM     35  C   UNL     1      -3.964  11.122  28.928  0.00  0.00    +0.133 C 
BRANCH  35  36
ATOM     36  N   UNL     1      -3.362  12.344  29.484  0.00  0.00    -0.308 N 
ATOM     37  H   UNL     1      -2.354  12.413  29.488  0.00  0.00    +0.149 HD
ATOM     38  C   UNL     1      -4.061  13.366  29.985  0.00  0.00    +0.210 C 
ATOM     39  C   UNL     1      -5.594  13.218  29.989  0.00  0.00    +0.109 C 
ATOM     40  O   UNL     1      -3.530  14.384  30.432  0.00  0.00    -0.276 OA
ENDBRANCH  35  36
BRANCH  32  41
ATOM     41  C   UNL     1      -2.221   8.179  27.487  0.00  0.00    +0.414 C 
ATOM     42  O   UNL     1      -1.610   8.507  26.472  0.00  0.00    -0.240 OA
ATOM     43  O   UNL     1      -1.618   7.603  28.394  0.00  0.00    -0.240 OA
ENDBRANCH  32  41
BRANCH  34  44
ATOM     44  O   UNL     1      -4.042  10.037  31.080  0.00  0.00    -0.390 OA
ATOM     45  H   UNL     1      -4.126  10.969  31.296  0.00  0.00    +0.210 HD
ENDBRANCH  34  44
BRANCH  32  46
ATOM     46  O   UNL     1      -4.500   7.405  27.040  0.00  0.00    -0.343 OA
ATOM     47  C   UNL     1      -5.077   7.695  25.742  0.00  0.00    +0.198 C 
ENDBRANCH  32  46
ENDBRANCH  29  30
BRANCH  29  48
ATOM     48  O   UNL     1      -5.307  12.296  26.523  0.00  0.00    -0.387 OA
ATOM     49  H   UNL     1      -5.644  12.238  27.420  0.00  0.00    +0.210 HD
ENDBRANCH  29  48
ENDBRANCH  26  29
ENDBRANCH   1  26
TORSDOF 16
