REMARK VINA RESULT:    -4.977      3.274      8.470
REMARK INTER + INTRA:         -11.708
REMARK INTER:                  -8.311
REMARK INTRA:                  -3.396
REMARK UNBOUND:                -3.093
REMARK  Name = lig_assembled_80.pdb
REMARK  16 active torsions:
REMARK  status: ('A' for Active; 'I' for Inactive)
REMARK    1  A    between atoms: _2  and  _10
REMARK    2  A    between atoms: _5  and  _24
REMARK    3  A    between atoms: _7  and  _8
REMARK    4  A    between atoms: _7  and  _24
REMARK    5  A    between atoms: _20  and  _40
REMARK    6  A    between atoms: _22  and  _28
REMARK    7  A    between atoms: _23  and  _27
REMARK    8  A    between atoms: _27  and  _28
REMARK    9  A    between atoms: _30  and  _31
REMARK   10  A    between atoms: _32  and  _33
REMARK   11  A    between atoms: _34  and  _36
REMARK   12  A    between atoms: _36  and  _37
REMARK   13  A    between atoms: _36  and  _38
REMARK   14  A    between atoms: _38  and  _39
REMARK   15  A    between atoms: _38  and  _40
REMARK   16  A    between atoms: _41  and  _43
REMARK                            x       y       z     vdW  Elec       q    Type
REMARK                         _______ _______ _______ _____ _____    ______ ____
ROOT
ATOM      1  C   UNL     1      -2.924  12.124  32.187  0.00  0.00    +0.141 C 
ENDROOT
BRANCH   1   4
ATOM      2  C   UNL     1      -4.124  14.276  32.372  0.00  0.00    +0.401 C 
ATOM      3  O   UNL     1      -3.179  14.947  31.949  0.00  0.00    -0.226 OA
ATOM      4  N   UNL     1      -4.089  12.952  32.521  0.00  0.00    -0.279 N 
ATOM      5  H   UNL     1      -4.912  12.491  32.885  0.00  0.00    +0.152 HD
BRANCH   2   6
ATOM      6  O   UNL     1      -5.338  14.938  32.734  0.00  0.00    -0.444 OA
BRANCH   6   7
ATOM      7  C   UNL     1      -5.576  16.026  31.837  0.00  0.00    +0.292 C 
BRANCH   7   9
ATOM      8  N   UNL     1      -7.306  14.716  30.671  0.00  0.00    -0.131 NA
ATOM      9  C   UNL     1      -6.218  15.542  30.598  0.00  0.00    +0.120 A 
ATOM     10  C   UNL     1      -5.913  15.785  29.278  0.00  0.00    +0.138 A 
ATOM     11  N   UNL     1      -6.823  15.029  28.589  0.00  0.00    -0.239 N 
ATOM     12  N   UNL     1      -7.681  14.417  29.434  0.00  0.00    -0.065 NA
BRANCH  11  13
ATOM     13  C   UNL     1      -7.078  14.951  27.146  0.00  0.00    +0.195 C 
ATOM     14  C   UNL     1      -7.031  16.360  26.571  0.00  0.00    +0.041 C 
ATOM     15  C   UNL     1      -7.568  16.390  25.155  0.00  0.00    +0.039 C 
ATOM     16  C   UNL     1      -6.479  16.034  24.192  0.00  0.00    -0.026 A 
ATOM     17  C   UNL     1      -5.875  14.775  24.172  0.00  0.00    +0.037 A 
ATOM     18  C   UNL     1      -4.947  14.476  23.160  0.00  0.00    +0.023 A 
ATOM     19  C   UNL     1      -4.534  15.449  22.252  0.00  0.00    +0.002 A 
ATOM     20  C   UNL     1      -5.078  16.723  22.317  0.00  0.00    +0.000 A 
ATOM     21  N   UNL     1      -6.045  13.769  25.139  0.00  0.00    -0.284 N 
ATOM     22  H   UNL     1      -5.545  12.906  24.945  0.00  0.00    +0.155 HD
ATOM     23  C   UNL     1      -6.062  17.006  23.263  0.00  0.00    +0.005 A 
ATOM     24  C   UNL     1      -6.223  13.874  26.488  0.00  0.00    +0.242 C 
ATOM     25  O   UNL     1      -5.726  12.952  27.147  0.00  0.00    -0.273 OA
ENDBRANCH  11  13
ENDBRANCH   7   9
ENDBRANCH   6   7
ENDBRANCH   2   6
ENDBRANCH   1   4
BRANCH   1  26
ATOM     26  C   UNL     1      -3.295  10.961  31.274  0.00  0.00    +0.163 C 
BRANCH  26  27
ATOM     27  O   UNL     1      -4.265  10.120  31.919  0.00  0.00    -0.388 OA
ATOM     28  H   UNL     1      -5.092  10.598  32.014  0.00  0.00    +0.210 HD
ENDBRANCH  26  27
BRANCH  26  29
ATOM     29  C   UNL     1      -3.840  11.506  29.942  0.00  0.00    +0.175 C 
BRANCH  29  30
ATOM     30  C   UNL     1      -3.740  10.472  28.810  0.00  0.00    +0.176 C 
ATOM     31  O   UNL     1      -3.001  11.078  27.715  0.00  0.00    -0.332 OA
ATOM     32  C   UNL     1      -2.714  10.196  26.579  0.00  0.00    +0.277 C 
ATOM     33  C   UNL     1      -4.021   9.564  26.042  0.00  0.00    +0.110 C 
ATOM     34  C   UNL     1      -4.857   8.934  27.176  0.00  0.00    +0.143 C 
ATOM     35  C   UNL     1      -5.093   9.937  28.305  0.00  0.00    +0.133 C 
BRANCH  35  36
ATOM     36  N   UNL     1      -5.815   9.300  29.418  0.00  0.00    -0.308 N 
ATOM     37  H   UNL     1      -5.354   8.548  29.911  0.00  0.00    +0.149 HD
ATOM     38  C   UNL     1      -7.041   9.650  29.818  0.00  0.00    +0.210 C 
ATOM     39  C   UNL     1      -7.727  10.781  29.029  0.00  0.00    +0.109 C 
ATOM     40  O   UNL     1      -7.616   9.108  30.762  0.00  0.00    -0.276 OA
ENDBRANCH  35  36
BRANCH  32  41
ATOM     41  C   UNL     1      -1.731   9.080  26.988  0.00  0.00    +0.414 C 
ATOM     42  O   UNL     1      -1.808   7.966  26.472  0.00  0.00    -0.240 OA
ATOM     43  O   UNL     1      -0.861   9.293  27.834  0.00  0.00    -0.240 OA
ENDBRANCH  32  41
BRANCH  34  44
ATOM     44  O   UNL     1      -6.116   8.500  26.661  0.00  0.00    -0.390 OA
ATOM     45  H   UNL     1      -6.734   8.377  27.386  0.00  0.00    +0.210 HD
ENDBRANCH  34  44
BRANCH  32  46
ATOM     46  O   UNL     1      -2.127  11.001  25.524  0.00  0.00    -0.343 OA
ATOM     47  C   UNL     1      -2.699  12.324  25.373  0.00  0.00    +0.198 C 
ENDBRANCH  32  46
ENDBRANCH  29  30
BRANCH  29  48
ATOM     48  O   UNL     1      -3.140  12.712  29.576  0.00  0.00    -0.387 OA
ATOM     49  H   UNL     1      -2.546  12.965  30.286  0.00  0.00    +0.210 HD
ENDBRANCH  29  48
ENDBRANCH  26  29
ENDBRANCH   1  26
TORSDOF 14
