REMARK VINA RESULT:    -5.327      5.195      8.248
REMARK INTER + INTRA:         -11.695
REMARK INTER:                  -8.259
REMARK INTRA:                  -3.436
REMARK UNBOUND:                -2.475
REMARK  Name = lig_assembled_25.pdb
REMARK  16 active torsions:
REMARK  status: ('A' for Active; 'I' for Inactive)
REMARK    1  A    between atoms: _2  and  _9
REMARK    2  A    between atoms: _4  and  _25
REMARK    3  A    between atoms: _6  and  _7
REMARK    4  A    between atoms: _6  and  _25
REMARK    5  A    between atoms: _21  and  _41
REMARK    6  A    between atoms: _23  and  _29
REMARK    7  A    between atoms: _24  and  _28
REMARK    8  A    between atoms: _28  and  _29
REMARK    9  A    between atoms: _31  and  _32
REMARK   10  A    between atoms: _33  and  _34
REMARK   11  A    between atoms: _35  and  _37
REMARK   12  A    between atoms: _37  and  _38
REMARK   13  A    between atoms: _37  and  _39
REMARK   14  A    between atoms: _39  and  _40
REMARK   15  A    between atoms: _39  and  _41
REMARK   16  A    between atoms: _42  and  _44
REMARK                            x       y       z     vdW  Elec       q    Type
REMARK                         _______ _______ _______ _____ _____    ______ ____
ROOT
ATOM      1  C   UNL     1      -2.922   7.840  31.183  0.00  0.00    +0.141 C 
ENDROOT
BRANCH   1   4
ATOM      2  C   UNL     1      -2.328   6.719  29.063  0.00  0.00    +0.401 C 
ATOM      3  O   UNL     1      -2.765   5.620  29.412  0.00  0.00    -0.226 OA
ATOM      4  N   UNL     1      -2.354   7.810  29.829  0.00  0.00    -0.279 N 
ATOM      5  H   UNL     1      -1.962   8.663  29.458  0.00  0.00    +0.152 HD
BRANCH   2   6
ATOM      6  O   UNL     1      -1.748   6.854  27.762  0.00  0.00    -0.444 OA
BRANCH   6   7
ATOM      7  C   UNL     1      -2.767   6.713  26.769  0.00  0.00    +0.292 C 
BRANCH   7   9
ATOM      8  N   UNL     1      -4.003   8.127  25.164  0.00  0.00    -0.131 NA
ATOM      9  C   UNL     1      -3.138   8.032  26.220  0.00  0.00    +0.120 A 
ATOM     10  C   UNL     1      -2.732   9.296  26.585  0.00  0.00    +0.138 A 
ATOM     11  N   UNL     1      -3.370  10.121  25.702  0.00  0.00    -0.240 N 
ATOM     12  N   UNL     1      -4.143   9.408  24.856  0.00  0.00    -0.064 NA
BRANCH  11  13
ATOM     13  C   UNL     1      -3.258  11.559  25.519  0.00  0.00    +0.170 C 
ATOM     14  C   UNL     1      -4.303  12.329  26.315  0.00  0.00    -0.011 A 
ATOM     15  C   UNL     1      -5.048  13.163  25.451  0.00  0.00    -0.012 A 
ATOM     16  C   UNL     1      -4.570  12.982  24.095  0.00  0.00    -0.012 A 
ATOM     17  C   UNL     1      -4.959  13.602  22.918  0.00  0.00    +0.009 A 
ATOM     18  C   UNL     1      -4.298  13.256  21.736  0.00  0.00    +0.001 A 
ATOM     19  C   UNL     1      -3.269  12.300  21.739  0.00  0.00    +0.000 A 
ATOM     20  C   UNL     1      -2.875  11.673  22.924  0.00  0.00    +0.006 A 
ATOM     21  C   UNL     1      -6.045  13.981  25.954  0.00  0.00    +0.009 A 
ATOM     22  C   UNL     1      -6.293  13.960  27.330  0.00  0.00    +0.001 A 
ATOM     23  C   UNL     1      -5.547  13.132  28.185  0.00  0.00    +0.000 A 
ATOM     24  C   UNL     1      -4.539  12.309  27.683  0.00  0.00    +0.006 A 
ATOM     25  C   UNL     1      -3.534  12.021  24.094  0.00  0.00    -0.011 A 
ENDBRANCH  11  13
ENDBRANCH   7   9
ENDBRANCH   6   7
ENDBRANCH   2   6
ENDBRANCH   1   4
BRANCH   1  26
ATOM     26  C   UNL     1      -4.127   8.770  31.274  0.00  0.00    +0.163 C 
BRANCH  26  27
ATOM     27  O   UNL     1      -5.033   8.303  32.287  0.00  0.00    -0.388 OA
ATOM     28  H   UNL     1      -4.733   8.602  33.148  0.00  0.00    +0.210 HD
ENDBRANCH  26  27
BRANCH  26  29
ATOM     29  C   UNL     1      -3.651  10.200  31.579  0.00  0.00    +0.175 C 
BRANCH  29  30
ATOM     30  C   UNL     1      -4.806  11.114  32.013  0.00  0.00    +0.176 C 
ATOM     31  O   UNL     1      -5.998  10.702  31.289  0.00  0.00    -0.332 OA
ATOM     32  C   UNL     1      -7.235  11.399  31.656  0.00  0.00    +0.277 C 
ATOM     33  C   UNL     1      -7.050  12.932  31.531  0.00  0.00    +0.110 C 
ATOM     34  C   UNL     1      -5.777  13.413  32.259  0.00  0.00    +0.143 C 
ATOM     35  C   UNL     1      -4.552  12.619  31.804  0.00  0.00    +0.133 C 
BRANCH  35  36
ATOM     36  N   UNL     1      -3.361  13.026  32.567  0.00  0.00    -0.308 N 
ATOM     37  H   UNL     1      -3.290  12.723  33.528  0.00  0.00    +0.149 HD
ATOM     38  C   UNL     1      -2.369  13.771  32.072  0.00  0.00    +0.210 C 
ATOM     39  C   UNL     1      -2.520  14.239  30.613  0.00  0.00    +0.109 C 
ATOM     40  O   UNL     1      -1.376  14.085  32.730  0.00  0.00    -0.276 OA
ENDBRANCH  35  36
BRANCH  32  41
ATOM     41  C   UNL     1      -7.655  11.047  33.098  0.00  0.00    +0.414 C 
ATOM     42  O   UNL     1      -7.387   9.942  33.569  0.00  0.00    -0.240 OA
ATOM     43  O   UNL     1      -8.260  11.866  33.790  0.00  0.00    -0.240 OA
ENDBRANCH  32  41
BRANCH  34  44
ATOM     44  O   UNL     1      -5.564  14.799  31.992  0.00  0.00    -0.390 OA
ATOM     45  H   UNL     1      -5.035  14.895  31.197  0.00  0.00    +0.210 HD
ENDBRANCH  34  44
BRANCH  32  46
ATOM     46  O   UNL     1      -8.273  10.987  30.730  0.00  0.00    -0.343 OA
ATOM     47  C   UNL     1      -7.800  10.576  29.423  0.00  0.00    +0.198 C 
ENDBRANCH  32  46
ENDBRANCH  29  30
BRANCH  29  48
ATOM     48  O   UNL     1      -2.982  10.757  30.429  0.00  0.00    -0.387 OA
ATOM     49  H   UNL     1      -2.566  11.588  30.671  0.00  0.00    +0.210 HD
ENDBRANCH  29  48
ENDBRANCH  26  29
ENDBRANCH   1  26
TORSDOF 14
