REMARK VINA RESULT:    -5.194      4.120      9.363
REMARK INTER + INTRA:         -12.052
REMARK INTER:                  -8.095
REMARK INTRA:                  -3.957
REMARK UNBOUND:                -2.759
REMARK  Name = lig_assembled_38.pdb
REMARK  17 active torsions:
REMARK  status: ('A' for Active; 'I' for Inactive)
REMARK    1  A    between atoms: _2  and  _9
REMARK    2  A    between atoms: _4  and  _19
REMARK    3  A    between atoms: _6  and  _7
REMARK    4  A    between atoms: _6  and  _19
REMARK    5  A    between atoms: _9  and  _10
REMARK    6  A    between atoms: _15  and  _35
REMARK    7  A    between atoms: _17  and  _23
REMARK    8  A    between atoms: _18  and  _22
REMARK    9  A    between atoms: _22  and  _23
REMARK   10  A    between atoms: _25  and  _26
REMARK   11  A    between atoms: _27  and  _28
REMARK   12  A    between atoms: _29  and  _31
REMARK   13  A    between atoms: _31  and  _32
REMARK   14  A    between atoms: _31  and  _33
REMARK   15  A    between atoms: _33  and  _34
REMARK   16  A    between atoms: _33  and  _35
REMARK   17  A    between atoms: _36  and  _38
REMARK                            x       y       z     vdW  Elec       q    Type
REMARK                         _______ _______ _______ _____ _____    ______ ____
ROOT
ATOM      1  C   UNL     1      -6.933   8.462  23.841  0.00  0.00    +0.163 C 
ENDROOT
BRANCH   1   2
ATOM      2  O   UNL     1      -6.423   8.465  25.185  0.00  0.00    -0.388 OA
ATOM      3  H   UNL     1      -6.044   7.605  25.385  0.00  0.00    +0.210 HD
ENDBRANCH   1   2
BRANCH   1   4
ATOM      4  C   UNL     1      -6.282   7.340  23.038  0.00  0.00    +0.141 C 
BRANCH   4   7
ATOM      5  C   UNL     1      -3.874   6.913  23.391  0.00  0.00    +0.401 C 
ATOM      6  O   UNL     1      -3.517   7.578  22.416  0.00  0.00    -0.226 OA
ATOM      7  N   UNL     1      -5.147   6.743  23.752  0.00  0.00    -0.279 N 
ATOM      8  H   UNL     1      -5.341   6.172  24.563  0.00  0.00    +0.152 HD
BRANCH   5   9
ATOM      9  O   UNL     1      -2.881   6.273  24.196  0.00  0.00    -0.444 OA
BRANCH   9  10
ATOM     10  C   UNL     1      -3.492   5.737  25.373  0.00  0.00    +0.292 C 
BRANCH  10  12
ATOM     11  N   UNL     1      -1.811   7.150  26.520  0.00  0.00    -0.131 NA
ATOM     12  C   UNL     1      -2.957   6.401  26.579  0.00  0.00    +0.120 A 
ATOM     13  C   UNL     1      -3.454   6.440  27.862  0.00  0.00    +0.137 A 
ATOM     14  N   UNL     1      -2.599   7.273  28.523  0.00  0.00    -0.247 N 
ATOM     15  N   UNL     1      -1.605   7.686  27.715  0.00  0.00    -0.065 NA
BRANCH  14  16
ATOM     16  C   UNL     1      -2.793   7.894  29.821  0.00  0.00    +0.180 C 
BRANCH  16  17
ATOM     17  C   UNL     1      -3.630   9.149  29.768  0.00  0.00    -0.025 A 
ATOM     18  C   UNL     1      -3.028  10.412  29.645  0.00  0.00    +0.005 A 
ATOM     19  C   UNL     1      -3.811  11.562  29.506  0.00  0.00    +0.001 A 
ATOM     20  C   UNL     1      -5.201  11.465  29.487  0.00  0.00    +0.015 A 
ATOM     21  C   UNL     1      -5.804  10.218  29.618  0.00  0.00    +0.018 A 
ATOM     22 BR   UNL     1      -7.690  10.081  29.584  0.00  0.00    -0.050 Br
ATOM     23  C   UNL     1      -5.031   9.064  29.758  0.00  0.00    +0.020 A 
ENDBRANCH  16  17
ENDBRANCH  14  16
ENDBRANCH  10  12
ENDBRANCH   9  10
ENDBRANCH   5   9
ENDBRANCH   4   7
ENDBRANCH   1   4
BRANCH   1  24
ATOM     24  C   UNL     1      -6.666   9.810  23.149  0.00  0.00    +0.175 C 
BRANCH  24  25
ATOM     25  C   UNL     1      -5.294  10.390  23.521  0.00  0.00    +0.176 C 
ATOM     26  O   UNL     1      -5.477  11.279  24.657  0.00  0.00    -0.332 OA
ATOM     27  C   UNL     1      -4.249  11.847  25.221  0.00  0.00    +0.277 C 
ATOM     28  C   UNL     1      -3.429  12.565  24.121  0.00  0.00    +0.110 C 
ATOM     29  C   UNL     1      -3.235  11.669  22.880  0.00  0.00    +0.143 C 
ATOM     30  C   UNL     1      -4.575  11.130  22.378  0.00  0.00    +0.133 C 
BRANCH  30  31
ATOM     31  N   UNL     1      -4.370  10.209  21.249  0.00  0.00    -0.308 N 
ATOM     32  H   UNL     1      -3.886   9.341  21.430  0.00  0.00    +0.149 HD
ATOM     33  C   UNL     1      -4.782  10.445  20.000  0.00  0.00    +0.210 C 
ATOM     34  C   UNL     1      -5.493  11.788  19.751  0.00  0.00    +0.109 C 
ATOM     35  O   UNL     1      -4.609   9.649  19.077  0.00  0.00    -0.276 OA
ENDBRANCH  30  31
BRANCH  27  36
ATOM     36  C   UNL     1      -3.385  10.747  25.872  0.00  0.00    +0.414 C 
ATOM     37  O   UNL     1      -3.911   9.722  26.307  0.00  0.00    -0.240 OA
ATOM     38  O   UNL     1      -2.165  10.883  25.963  0.00  0.00    -0.240 OA
ENDBRANCH  27  36
BRANCH  27  39
ATOM     39  O   UNL     1      -4.626  12.827  26.223  0.00  0.00    -0.343 OA
ATOM     40  C   UNL     1      -5.718  13.702  25.842  0.00  0.00    +0.198 C 
ENDBRANCH  27  39
BRANCH  29  41
ATOM     41  O   UNL     1      -2.610  12.419  21.838  0.00  0.00    -0.390 OA
ATOM     42  H   UNL     1      -1.678  12.534  22.040  0.00  0.00    +0.210 HD
ENDBRANCH  29  41
ENDBRANCH  24  25
BRANCH  24  43
ATOM     43  O   UNL     1      -7.708  10.751  23.478  0.00  0.00    -0.387 OA
ATOM     44  H   UNL     1      -7.357  11.426  24.063  0.00  0.00    +0.210 HD
ENDBRANCH  24  43
ENDBRANCH   1  24
TORSDOF 15
