REMARK VINA RESULT:    -4.892      4.132     10.740
REMARK INTER + INTRA:         -11.879
REMARK INTER:                  -9.325
REMARK INTRA:                  -2.554
REMARK UNBOUND:                -2.554
REMARK  Name = lig_assembled_9.pdb
REMARK  20 active torsions:
REMARK  status: ('A' for Active; 'I' for Inactive)
REMARK    1  A    between atoms: _2  and  _9
REMARK    2  A    between atoms: _4  and  _23
REMARK    3  A    between atoms: _6  and  _7
REMARK    4  A    between atoms: _6  and  _23
REMARK    5  A    between atoms: _11  and  _12
REMARK    6  A    between atoms: _12  and  _17
REMARK    7  A    between atoms: _13  and  _14
REMARK    8  A    between atoms: _13  and  _17
REMARK    9  A    between atoms: _19  and  _39
REMARK   10  A    between atoms: _21  and  _27
REMARK   11  A    between atoms: _22  and  _26
REMARK   12  A    between atoms: _26  and  _27
REMARK   13  A    between atoms: _29  and  _30
REMARK   14  A    between atoms: _31  and  _32
REMARK   15  A    between atoms: _33  and  _35
REMARK   16  A    between atoms: _35  and  _36
REMARK   17  A    between atoms: _35  and  _37
REMARK   18  A    between atoms: _37  and  _38
REMARK   19  A    between atoms: _37  and  _39
REMARK   20  A    between atoms: _40  and  _42
REMARK                            x       y       z     vdW  Elec       q    Type
REMARK                         _______ _______ _______ _____ _____    ______ ____
ROOT
ATOM      1  C   UNL     1      -3.208  12.535  24.353  0.00  0.00    +0.163 C 
ENDROOT
BRANCH   1   2
ATOM      2  O   UNL     1      -3.943  13.224  25.377  0.00  0.00    -0.388 OA
ATOM      3  H   UNL     1      -4.847  12.900  25.397  0.00  0.00    +0.210 HD
ENDBRANCH   1   2
BRANCH   1   4
ATOM      4  C   UNL     1      -3.726  11.097  24.177  0.00  0.00    +0.175 C 
BRANCH   4   5
ATOM      5  C   UNL     1      -3.739  10.321  25.503  0.00  0.00    +0.176 C 
ATOM      6  O   UNL     1      -2.887   9.153  25.346  0.00  0.00    -0.332 OA
ATOM      7  C   UNL     1      -2.693   8.343  26.552  0.00  0.00    +0.277 C 
ATOM      8  C   UNL     1      -4.059   7.919  27.145  0.00  0.00    +0.110 C 
ATOM      9  C   UNL     1      -5.010   9.123  27.301  0.00  0.00    +0.143 C 
ATOM     10  C   UNL     1      -5.137   9.896  25.988  0.00  0.00    +0.133 C 
BRANCH  10  11
ATOM     11  N   UNL     1      -5.977  11.090  26.172  0.00  0.00    -0.308 N 
ATOM     12  H   UNL     1      -5.754  11.710  26.938  0.00  0.00    +0.149 HD
ATOM     13  C   UNL     1      -7.015  11.408  25.393  0.00  0.00    +0.210 C 
ATOM     14  C   UNL     1      -7.345  10.430  24.250  0.00  0.00    +0.109 C 
ATOM     15  O   UNL     1      -7.692  12.423  25.562  0.00  0.00    -0.276 OA
ENDBRANCH  10  11
BRANCH   7  16
ATOM     16  C   UNL     1      -1.891   9.126  27.613  0.00  0.00    +0.414 C 
ATOM     17  O   UNL     1      -2.290   9.181  28.775  0.00  0.00    -0.240 OA
ATOM     18  O   UNL     1      -0.846   9.701  27.306  0.00  0.00    -0.240 OA
ENDBRANCH   7  16
BRANCH   7  19
ATOM     19  O   UNL     1      -1.965   7.145  26.176  0.00  0.00    -0.343 OA
ATOM     20  C   UNL     1      -2.039   6.059  27.133  0.00  0.00    +0.198 C 
ENDBRANCH   7  19
BRANCH   9  21
ATOM     21  O   UNL     1      -6.302   8.667  27.705  0.00  0.00    -0.390 OA
ATOM     22  H   UNL     1      -6.734   9.348  28.227  0.00  0.00    +0.210 HD
ENDBRANCH   9  21
ENDBRANCH   4   5
BRANCH   4  23
ATOM     23  O   UNL     1      -2.930  10.398  23.200  0.00  0.00    -0.387 OA
ATOM     24  H   UNL     1      -2.814  10.952  22.425  0.00  0.00    +0.210 HD
ENDBRANCH   4  23
ENDBRANCH   1   4
BRANCH   1  25
ATOM     25  C   UNL     1      -3.329  13.284  23.030  0.00  0.00    +0.141 C 
BRANCH  25  28
ATOM     26  C   UNL     1      -5.706  13.347  22.358  0.00  0.00    +0.401 C 
ATOM     27  O   UNL     1      -6.000  14.254  23.140  0.00  0.00    -0.226 OA
ATOM     28  N   UNL     1      -4.482  12.828  22.245  0.00  0.00    -0.279 N 
ATOM     29  H   UNL     1      -4.341  12.079  21.582  0.00  0.00    +0.152 HD
BRANCH  26  30
ATOM     30  O   UNL     1      -6.722  12.799  21.515  0.00  0.00    -0.444 OA
BRANCH  30  31
ATOM     31  C   UNL     1      -6.271  11.557  20.967  0.00  0.00    +0.292 C 
BRANCH  31  33
ATOM     32  N   UNL     1      -7.046  12.219  18.711  0.00  0.00    -0.131 NA
ATOM     33  C   UNL     1      -6.079  11.683  19.510  0.00  0.00    +0.121 A 
ATOM     34  C   UNL     1      -4.998  11.334  18.735  0.00  0.00    +0.143 A 
ATOM     35  N   UNL     1      -5.339  11.716  17.457  0.00  0.00    -0.220 N 
ATOM     36  N   UNL     1      -6.593  12.228  17.465  0.00  0.00    -0.060 NA
BRANCH  35  37
ATOM     37  C   UNL     1      -4.558  11.653  16.275  0.00  0.00    +0.068 A 
ATOM     38  C   UNL     1      -4.542  12.726  15.373  0.00  0.00    +0.042 A 
ATOM     39  C   UNL     1      -3.794  12.646  14.189  0.00  0.00    +0.061 A 
ATOM     40  C   UNL     1      -3.057  11.488  13.912  0.00  0.00    +0.015 A 
ATOM     41  C   UNL     1      -3.061  10.423  14.814  0.00  0.00    +0.003 A 
ATOM     42  C   UNL     1      -3.806  10.502  15.992  0.00  0.00    +0.028 A 
BRANCH  39  43
ATOM     43  C   UNL     1      -3.702  13.784  13.237  0.00  0.00    +0.339 C 
ATOM     44  O   UNL     1      -4.137  14.900  13.471  0.00  0.00    -0.245 OA
BRANCH  43  45
ATOM     45  O   UNL     1      -3.166  13.360  12.066  0.00  0.00    -0.461 OA
BRANCH  45  46
ATOM     46  C   UNL     1      -2.183  14.227  11.486  0.00  0.00    +0.229 C 
ATOM     47  C   UNL     1      -0.951  14.196  12.372  0.00  0.00    +0.048 C 
ENDBRANCH  45  46
ENDBRANCH  43  45
ENDBRANCH  39  43
ENDBRANCH  35  37
ENDBRANCH  31  33
ENDBRANCH  30  31
ENDBRANCH  26  30
ENDBRANCH  25  28
ENDBRANCH   1  25
TORSDOF 17
