REMARK VINA RESULT:    -4.630      2.558      3.474
REMARK INTER + INTRA:         -11.355
REMARK INTER:                  -7.103
REMARK INTRA:                  -4.252
REMARK UNBOUND:                -2.934
REMARK  Name = lig_assembled_72.pdb
REMARK  20 active torsions:
REMARK  status: ('A' for Active; 'I' for Inactive)
REMARK    1  A    between atoms: _2  and  _9
REMARK    2  A    between atoms: _4  and  _17
REMARK    3  A    between atoms: _5  and  _9
REMARK    4  A    between atoms: _5  and  _12
REMARK    5  A    between atoms: _6  and  _7
REMARK    6  A    between atoms: _6  and  _17
REMARK    7  A    between atoms: _9  and  _10
REMARK    8  A    between atoms: _9  and  _11
REMARK    9  A    between atoms: _13  and  _33
REMARK   10  A    between atoms: _15  and  _21
REMARK   11  A    between atoms: _16  and  _20
REMARK   12  A    between atoms: _20  and  _21
REMARK   13  A    between atoms: _23  and  _24
REMARK   14  A    between atoms: _25  and  _26
REMARK   15  A    between atoms: _27  and  _29
REMARK   16  A    between atoms: _29  and  _30
REMARK   17  A    between atoms: _29  and  _31
REMARK   18  A    between atoms: _31  and  _32
REMARK   19  A    between atoms: _31  and  _33
REMARK   20  A    between atoms: _34  and  _36
REMARK                            x       y       z     vdW  Elec       q    Type
REMARK                         _______ _______ _______ _____ _____    ______ ____
ROOT
ATOM      1  C   UNL     1      -2.945  12.414  23.117  0.00  0.00    +0.163 C 
ENDROOT
BRANCH   1   2
ATOM      2  O   UNL     1      -2.651  13.056  24.369  0.00  0.00    -0.388 OA
ATOM      3  H   UNL     1      -2.253  13.914  24.203  0.00  0.00    +0.210 HD
ENDBRANCH   1   2
BRANCH   1   4
ATOM      4  C   UNL     1      -3.689  11.087  23.342  0.00  0.00    +0.175 C 
BRANCH   4   5
ATOM      5  C   UNL     1      -3.681  10.662  24.818  0.00  0.00    +0.176 C 
ATOM      6  O   UNL     1      -3.171   9.302  24.889  0.00  0.00    -0.332 OA
ATOM      7  C   UNL     1      -2.991   8.763  26.240  0.00  0.00    +0.277 C 
ATOM      8  C   UNL     1      -4.310   8.870  27.045  0.00  0.00    +0.110 C 
ATOM      9  C   UNL     1      -4.908  10.290  26.972  0.00  0.00    +0.143 C 
ATOM     10  C   UNL     1      -5.048  10.753  25.521  0.00  0.00    +0.133 C 
BRANCH  10  11
ATOM     11  N   UNL     1      -5.537  12.140  25.468  0.00  0.00    -0.308 N 
ATOM     12  H   UNL     1      -5.014  12.844  25.970  0.00  0.00    +0.149 HD
ATOM     13  C   UNL     1      -6.626  12.529  24.800  0.00  0.00    +0.210 C 
ATOM     14  C   UNL     1      -7.415  11.428  24.067  0.00  0.00    +0.109 C 
ATOM     15  O   UNL     1      -7.004  13.700  24.760  0.00  0.00    -0.276 OA
ENDBRANCH  10  11
BRANCH   7  16
ATOM     16  C   UNL     1      -1.870   9.516  26.986  0.00  0.00    +0.414 C 
ATOM     17  O   UNL     1      -0.841   9.840  26.394  0.00  0.00    -0.240 OA
ATOM     18  O   UNL     1      -1.994   9.800  28.178  0.00  0.00    -0.240 OA
ENDBRANCH   7  16
BRANCH   9  19
ATOM     19  O   UNL     1      -6.192  10.305  27.597  0.00  0.00    -0.390 OA
ATOM     20  H   UNL     1      -6.260   9.567  28.207  0.00  0.00    +0.210 HD
ENDBRANCH   9  19
BRANCH   7  21
ATOM     21  O   UNL     1      -2.641   7.360  26.120  0.00  0.00    -0.343 OA
ATOM     22  C   UNL     1      -2.446   6.668  27.380  0.00  0.00    +0.198 C 
ENDBRANCH   7  21
ENDBRANCH   4   5
BRANCH   4  23
ATOM     23  O   UNL     1      -3.112  10.049  22.523  0.00  0.00    -0.387 OA
ATOM     24  H   UNL     1      -3.550   9.215  22.708  0.00  0.00    +0.210 HD
ENDBRANCH   4  23
ENDBRANCH   1   4
BRANCH   1  25
ATOM     25  C   UNL     1      -3.794  13.334  22.246  0.00  0.00    +0.141 C 
BRANCH  25  28
ATOM     26  C   UNL     1      -5.783  12.827  20.870  0.00  0.00    +0.401 C 
ATOM     27  O   UNL     1      -6.488  13.685  21.405  0.00  0.00    -0.226 OA
ATOM     28  N   UNL     1      -4.514  12.590  21.205  0.00  0.00    -0.279 N 
ATOM     29  H   UNL     1      -4.020  11.857  20.715  0.00  0.00    +0.152 HD
BRANCH  26  30
ATOM     30  O   UNL     1      -6.339  12.021  19.828  0.00  0.00    -0.444 OA
BRANCH  30  31
ATOM     31  C   UNL     1      -7.274  11.095  20.387  0.00  0.00    +0.292 C 
BRANCH  31  33
ATOM     32  N   UNL     1      -5.320   9.579  20.349  0.00  0.00    -0.131 NA
ATOM     33  C   UNL     1      -6.589   9.851  20.782  0.00  0.00    +0.120 A 
ATOM     34  C   UNL     1      -7.024   8.812  21.577  0.00  0.00    +0.137 A 
ATOM     35  N   UNL     1      -5.973   7.937  21.593  0.00  0.00    -0.244 N 
ATOM     36  N   UNL     1      -4.953   8.410  20.849  0.00  0.00    -0.065 NA
BRANCH  35  37
ATOM     37  C   UNL     1      -5.874   6.648  22.293  0.00  0.00    +0.083 C 
ATOM     38  C   UNL     1      -5.443   5.560  21.291  0.00  0.00    +0.038 C 
ATOM     39  C   UNL     1      -7.244   6.278  22.894  0.00  0.00    +0.038 C 
BRANCH  37  40
ATOM     40  C   UNL     1      -4.815   6.692  23.428  0.00  0.00    +0.185 C 
BRANCH  40  41
ATOM     41  O   UNL     1      -3.568   7.234  22.998  0.00  0.00    -0.393 OA
ATOM     42  H   UNL     1      -3.253   6.648  22.276  0.00  0.00    +0.209 HD
ENDBRANCH  40  41
ENDBRANCH  37  40
ENDBRANCH  35  37
ENDBRANCH  31  33
ENDBRANCH  30  31
ENDBRANCH  26  30
ENDBRANCH  25  28
ENDBRANCH   1  25
TORSDOF 16
