REMARK VINA RESULT:    -4.439      2.130      4.638
REMARK INTER + INTRA:         -12.179
REMARK INTER:                  -9.352
REMARK INTRA:                  -2.827
REMARK UNBOUND:                -3.458
REMARK  Name = lig_assembled_43.pdb
REMARK  20 active torsions:
REMARK  status: ('A' for Active; 'I' for Inactive)
REMARK    1  A    between atoms: _2  and  _9
REMARK    2  A    between atoms: _4  and  _18
REMARK    3  A    between atoms: _6  and  _7
REMARK    4  A    between atoms: _6  and  _18
REMARK    5  A    between atoms: _9  and  _10
REMARK    6  A    between atoms: _10  and  _11
REMARK    7  A    between atoms: _11  and  _12
REMARK    8  A    between atoms: _12  and  _13
REMARK    9  A    between atoms: _14  and  _34
REMARK   10  A    between atoms: _16  and  _22
REMARK   11  A    between atoms: _17  and  _21
REMARK   12  A    between atoms: _21  and  _22
REMARK   13  A    between atoms: _24  and  _25
REMARK   14  A    between atoms: _26  and  _27
REMARK   15  A    between atoms: _28  and  _30
REMARK   16  A    between atoms: _30  and  _31
REMARK   17  A    between atoms: _30  and  _32
REMARK   18  A    between atoms: _32  and  _33
REMARK   19  A    between atoms: _32  and  _34
REMARK   20  A    between atoms: _35  and  _37
REMARK                            x       y       z     vdW  Elec       q    Type
REMARK                         _______ _______ _______ _____ _____    ______ ____
ROOT
ATOM      1  C   UNL     1      -4.410  12.033  28.125  0.00  0.00    +0.163 C 
ENDROOT
BRANCH   1   2
ATOM      2  O   UNL     1      -5.527  11.250  27.671  0.00  0.00    -0.388 OA
ATOM      3  H   UNL     1      -5.717  11.465  26.754  0.00  0.00    +0.210 HD
ENDBRANCH   1   2
BRANCH   1   4
ATOM      4  C   UNL     1      -4.476  12.253  29.646  0.00  0.00    +0.175 C 
BRANCH   4   5
ATOM      5  C   UNL     1      -4.108  10.984  30.430  0.00  0.00    +0.176 C 
ATOM      6  O   UNL     1      -5.283  10.129  30.472  0.00  0.00    -0.332 OA
ATOM      7  C   UNL     1      -5.089   8.815  31.095  0.00  0.00    +0.277 C 
ATOM      8  C   UNL     1      -4.505   8.973  32.520  0.00  0.00    +0.110 C 
ATOM      9  C   UNL     1      -3.272   9.901  32.531  0.00  0.00    +0.143 C 
ATOM     10  C   UNL     1      -3.585  11.237  31.856  0.00  0.00    +0.133 C 
BRANCH  10  11
ATOM     11  N   UNL     1      -2.379  12.079  31.795  0.00  0.00    -0.308 N 
ATOM     12  H   UNL     1      -1.572  11.712  31.310  0.00  0.00    +0.149 HD
ATOM     13  C   UNL     1      -2.281  13.294  32.340  0.00  0.00    +0.210 C 
ATOM     14  C   UNL     1      -3.519  13.814  33.095  0.00  0.00    +0.109 C 
ATOM     15  O   UNL     1      -1.263  13.983  32.260  0.00  0.00    -0.276 OA
ENDBRANCH  10  11
BRANCH   7  16
ATOM     16  C   UNL     1      -4.143   7.942  30.244  0.00  0.00    +0.414 C 
ATOM     17  O   UNL     1      -3.291   7.240  30.787  0.00  0.00    -0.240 OA
ATOM     18  O   UNL     1      -4.233   7.938  29.016  0.00  0.00    -0.240 OA
ENDBRANCH   7  16
BRANCH   9  19
ATOM     19  O   UNL     1      -2.859  10.139  33.877  0.00  0.00    -0.390 OA
ATOM     20  H   UNL     1      -3.351  10.881  34.237  0.00  0.00    +0.210 HD
ENDBRANCH   9  19
BRANCH   7  21
ATOM     21  O   UNL     1      -6.385   8.173  31.200  0.00  0.00    -0.343 OA
ATOM     22  C   UNL     1      -7.451   8.818  30.458  0.00  0.00    +0.198 C 
ENDBRANCH   7  21
ENDBRANCH   4   5
BRANCH   4  23
ATOM     23  O   UNL     1      -5.790  12.708  30.026  0.00  0.00    -0.387 OA
ATOM     24  H   UNL     1      -6.373  11.953  30.131  0.00  0.00    +0.210 HD
ENDBRANCH   4  23
ENDBRANCH   1   4
BRANCH   1  25
ATOM     25  C   UNL     1      -3.103  11.334  27.767  0.00  0.00    +0.141 C 
BRANCH  25  28
ATOM     26  C   UNL     1      -2.650   9.659  26.008  0.00  0.00    +0.401 C 
ATOM     27  O   UNL     1      -1.760  10.323  25.473  0.00  0.00    -0.226 OA
ATOM     28  N   UNL     1      -3.335  10.057  27.081  0.00  0.00    -0.279 N 
ATOM     29  H   UNL     1      -4.054   9.445  27.442  0.00  0.00    +0.152 HD
BRANCH  26  30
ATOM     30  O   UNL     1      -2.989   8.382  25.460  0.00  0.00    -0.444 OA
BRANCH  30  31
ATOM     31  C   UNL     1      -4.335   8.412  24.976  0.00  0.00    +0.292 C 
BRANCH  31  33
ATOM     32  N   UNL     1      -3.600   8.706  22.630  0.00  0.00    -0.131 NA
ATOM     33  C   UNL     1      -4.397   9.099  23.674  0.00  0.00    +0.120 A 
ATOM     34  C   UNL     1      -5.172  10.163  23.270  0.00  0.00    +0.137 A 
ATOM     35  N   UNL     1      -4.795  10.370  21.978  0.00  0.00    -0.251 N 
ATOM     36  N   UNL     1      -3.853   9.494  21.594  0.00  0.00    -0.065 NA
BRANCH  35  37
ATOM     37  C   UNL     1      -5.260  11.394  21.065  0.00  0.00    +0.145 C 
BRANCH  37  38
ATOM     38  C   UNL     1      -4.097  12.165  20.450  0.00  0.00    +0.024 C 
BRANCH  38  39
ATOM     39  C   UNL     1      -3.377  13.038  21.480  0.00  0.00    +0.006 C 
BRANCH  39  40
ATOM     40  C   UNL     1      -4.362  13.998  22.152  0.00  0.00    +0.026 C 
BRANCH  40  41
ATOM     41  C   UNL     1      -4.370  13.842  23.644  0.00  0.00    -0.034 C 
ATOM     42  C   UNL     1      -3.397  13.236  24.336  0.00  0.00    +0.004 C 
ENDBRANCH  40  41
ENDBRANCH  39  40
ENDBRANCH  38  39
ENDBRANCH  37  38
ENDBRANCH  35  37
ENDBRANCH  31  33
ENDBRANCH  30  31
ENDBRANCH  26  30
ENDBRANCH  25  28
ENDBRANCH   1  25
TORSDOF 18
