REMARK VINA RESULT:    -5.517      5.702      9.847
REMARK INTER + INTRA:         -12.574
REMARK INTER:                  -8.390
REMARK INTRA:                  -4.183
REMARK UNBOUND:                -2.541
REMARK  Name = lig_assembled_23.pdb
REMARK  18 active torsions:
REMARK  status: ('A' for Active; 'I' for Inactive)
REMARK    1  A    between atoms: _2  and  _10
REMARK    2  A    between atoms: _3  and  _41
REMARK    3  A    between atoms: _5  and  _21
REMARK    4  A    between atoms: _7  and  _8
REMARK    5  A    between atoms: _7  and  _21
REMARK    6  A    between atoms: _12  and  _41
REMARK    7  A    between atoms: _17  and  _37
REMARK    8  A    between atoms: _19  and  _25
REMARK    9  A    between atoms: _20  and  _24
REMARK   10  A    between atoms: _24  and  _25
REMARK   11  A    between atoms: _27  and  _28
REMARK   12  A    between atoms: _29  and  _30
REMARK   13  A    between atoms: _31  and  _33
REMARK   14  A    between atoms: _33  and  _34
REMARK   15  A    between atoms: _33  and  _35
REMARK   16  A    between atoms: _35  and  _36
REMARK   17  A    between atoms: _35  and  _37
REMARK   18  A    between atoms: _38  and  _40
REMARK                            x       y       z     vdW  Elec       q    Type
REMARK                         _______ _______ _______ _____ _____    ______ ____
ROOT
ATOM      1  C   UNL     1      -4.037  12.800  22.376  0.00  0.00    +0.141 C 
ENDROOT
BRANCH   1   4
ATOM      2  C   UNL     1      -5.642  14.228  23.597  0.00  0.00    +0.401 C 
ATOM      3  O   UNL     1      -6.496  14.190  22.708  0.00  0.00    -0.226 OA
ATOM      4  N   UNL     1      -4.461  13.613  23.522  0.00  0.00    -0.279 N 
ATOM      5  H   UNL     1      -3.822  13.711  24.299  0.00  0.00    +0.152 HD
BRANCH   2   6
ATOM      6  O   UNL     1      -5.910  14.975  24.786  0.00  0.00    -0.444 OA
BRANCH   6   7
ATOM      7  C   UNL     1      -7.169  14.571  25.330  0.00  0.00    +0.292 C 
BRANCH   7   9
ATOM      8  N   UNL     1      -7.798  12.558  26.622  0.00  0.00    -0.131 NA
ATOM      9  C   UNL     1      -6.966  13.626  26.443  0.00  0.00    +0.121 A 
ATOM     10  C   UNL     1      -6.005  13.616  27.429  0.00  0.00    +0.143 A 
ATOM     11  N   UNL     1      -6.287  12.505  28.189  0.00  0.00    -0.220 N 
ATOM     12  N   UNL     1      -7.382  11.884  27.685  0.00  0.00    -0.060 NA
BRANCH  11  13
ATOM     13  C   UNL     1      -5.611  12.014  29.337  0.00  0.00    +0.069 A 
ATOM     14  C   UNL     1      -4.720  12.852  30.023  0.00  0.00    +0.056 A 
ATOM     15  C   UNL     1      -4.026  12.360  31.133  0.00  0.00    +0.107 A 
ATOM     16  C   UNL     1      -4.227  11.055  31.585  0.00  0.00    +0.028 A 
ATOM     17  C   UNL     1      -5.124  10.228  30.910  0.00  0.00    +0.004 A 
ATOM     18  C   UNL     1      -5.812  10.701  29.787  0.00  0.00    +0.028 A 
BRANCH  15  19
ATOM     19  S   UNL     1      -2.863  13.411  31.951  0.00  0.00    +0.056 S 
ATOM     20  O   UNL     1      -3.587  14.397  32.718  0.00  0.00    -0.153 OA
ATOM     21  O   UNL     1      -1.806  12.604  32.515  0.00  0.00    -0.153 OA
BRANCH  19  22
ATOM     22  N   UNL     1      -2.162  14.225  30.661  0.00  0.00    -0.204 NA
ATOM     23  H   UNL     1      -2.854  14.817  30.204  0.00  0.00    +0.144 HD
ATOM     24  H   UNL     1      -1.705  13.560  30.035  0.00  0.00    +0.144 HD
ENDBRANCH  19  22
ENDBRANCH  15  19
ENDBRANCH  11  13
ENDBRANCH   7   9
ENDBRANCH   6   7
ENDBRANCH   2   6
ENDBRANCH   1   4
BRANCH   1  25
ATOM     25  C   UNL     1      -3.057  11.706  22.785  0.00  0.00    +0.163 C 
BRANCH  25  26
ATOM     26  O   UNL     1      -2.315  12.120  23.944  0.00  0.00    -0.388 OA
ATOM     27  H   UNL     1      -2.532  11.548  24.685  0.00  0.00    +0.210 HD
ENDBRANCH  25  26
BRANCH  25  28
ATOM     28  C   UNL     1      -3.827  10.403  23.061  0.00  0.00    +0.175 C 
BRANCH  28  29
ATOM     29  C   UNL     1      -3.984  10.132  24.565  0.00  0.00    +0.176 C 
ATOM     30  O   UNL     1      -2.988   9.145  24.948  0.00  0.00    -0.332 OA
ATOM     31  C   UNL     1      -2.918   8.837  26.379  0.00  0.00    +0.277 C 
ATOM     32  C   UNL     1      -4.309   8.411  26.910  0.00  0.00    +0.110 C 
ATOM     33  C   UNL     1      -5.407   9.415  26.500  0.00  0.00    +0.143 C 
ATOM     34  C   UNL     1      -5.388   9.664  24.992  0.00  0.00    +0.133 C 
BRANCH  34  35
ATOM     35  N   UNL     1      -6.380  10.686  24.626  0.00  0.00    -0.308 N 
ATOM     36  H   UNL     1      -6.334  11.579  25.098  0.00  0.00    +0.149 HD
ATOM     37  C   UNL     1      -7.337  10.513  23.711  0.00  0.00    +0.210 C 
ATOM     38  C   UNL     1      -7.397   9.133  23.028  0.00  0.00    +0.109 C 
ATOM     39  O   UNL     1      -8.146  11.393  23.414  0.00  0.00    -0.276 OA
ENDBRANCH  34  35
BRANCH  31  40
ATOM     40  C   UNL     1      -2.414  10.058  27.177  0.00  0.00    +0.414 C 
ATOM     41  O   UNL     1      -1.827  10.974  26.603  0.00  0.00    -0.240 OA
ATOM     42  O   UNL     1      -2.594  10.126  28.394  0.00  0.00    -0.240 OA
ENDBRANCH  31  40
BRANCH  33  43
ATOM     43  O   UNL     1      -6.688   8.908  26.878  0.00  0.00    -0.390 OA
ATOM     44  H   UNL     1      -6.576   8.102  27.387  0.00  0.00    +0.210 HD
ENDBRANCH  33  43
BRANCH  31  45
ATOM     45  O   UNL     1      -2.001   7.726  26.555  0.00  0.00    -0.343 OA
ATOM     46  C   UNL     1      -2.505   6.441  26.113  0.00  0.00    +0.198 C 
ENDBRANCH  31  45
ENDBRANCH  28  29
BRANCH  28  47
ATOM     47  O   UNL     1      -3.168   9.292  22.423  0.00  0.00    -0.387 OA
ATOM     48  H   UNL     1      -2.371   9.601  21.985  0.00  0.00    +0.210 HD
ENDBRANCH  28  47
ENDBRANCH  25  28
ENDBRANCH   1  25
TORSDOF 16
