REMARK VINA RESULT:    -5.440      2.348      4.109
REMARK INTER + INTRA:         -11.228
REMARK INTER:                  -8.211
REMARK INTRA:                  -3.016
REMARK UNBOUND:                -1.813
REMARK  Name = lig_assembled_40.pdb
REMARK  17 active torsions:
REMARK  status: ('A' for Active; 'I' for Inactive)
REMARK    1  A    between atoms: _2  and  _9
REMARK    2  A    between atoms: _4  and  _19
REMARK    3  A    between atoms: _6  and  _7
REMARK    4  A    between atoms: _6  and  _19
REMARK    5  A    between atoms: _12  and  _13
REMARK    6  A    between atoms: _15  and  _35
REMARK    7  A    between atoms: _17  and  _23
REMARK    8  A    between atoms: _18  and  _22
REMARK    9  A    between atoms: _22  and  _23
REMARK   10  A    between atoms: _25  and  _26
REMARK   11  A    between atoms: _27  and  _28
REMARK   12  A    between atoms: _29  and  _31
REMARK   13  A    between atoms: _31  and  _32
REMARK   14  A    between atoms: _31  and  _33
REMARK   15  A    between atoms: _33  and  _34
REMARK   16  A    between atoms: _33  and  _35
REMARK   17  A    between atoms: _36  and  _38
REMARK                            x       y       z     vdW  Elec       q    Type
REMARK                         _______ _______ _______ _____ _____    ______ ____
ROOT
ATOM      1  C   UNL     1      -2.937  11.755  24.875  0.00  0.00    +0.163 C 
ENDROOT
BRANCH   1   2
ATOM      2  O   UNL     1      -3.202  11.618  26.281  0.00  0.00    -0.388 OA
ATOM      3  H   UNL     1      -3.198  10.687  26.519  0.00  0.00    +0.210 HD
ENDBRANCH   1   2
BRANCH   1   4
ATOM      4  C   UNL     1      -3.040  13.220  24.466  0.00  0.00    +0.141 C 
BRANCH   4   7
ATOM      5  C   UNL     1      -4.253  14.164  22.531  0.00  0.00    +0.401 C 
ATOM      6  O   UNL     1      -3.244  14.649  22.015  0.00  0.00    -0.226 OA
ATOM      7  N   UNL     1      -4.251  13.485  23.679  0.00  0.00    -0.279 N 
ATOM      8  H   UNL     1      -5.132  13.134  24.027  0.00  0.00    +0.152 HD
BRANCH   5   9
ATOM      9  O   UNL     1      -5.515  14.330  21.879  0.00  0.00    -0.444 OA
BRANCH   9  10
ATOM     10  C   UNL     1      -6.169  13.062  21.775  0.00  0.00    +0.292 C 
BRANCH  10  12
ATOM     11  N   UNL     1      -7.143  12.731  19.524  0.00  0.00    -0.131 NA
ATOM     12  C   UNL     1      -6.102  12.561  20.389  0.00  0.00    +0.121 A 
ATOM     13  C   UNL     1      -5.082  11.905  19.742  0.00  0.00    +0.143 A 
ATOM     14  N   UNL     1      -5.536  11.717  18.456  0.00  0.00    -0.220 N 
ATOM     15  N   UNL     1      -6.797  12.208  18.354  0.00  0.00    -0.060 NA
BRANCH  14  16
ATOM     16  C   UNL     1      -4.850  11.156  17.348  0.00  0.00    +0.067 A 
ATOM     17  C   UNL     1      -4.819   9.771  17.150  0.00  0.00    +0.028 A 
ATOM     18  C   UNL     1      -4.081   9.228  16.094  0.00  0.00    +0.005 A 
ATOM     19  C   UNL     1      -3.365  10.059  15.226  0.00  0.00    -0.050 A 
ATOM     20  C   UNL     1      -3.427  11.445  15.404  0.00  0.00    +0.005 A 
ATOM     21  C   UNL     1      -2.534   9.477  14.120  0.00  0.00    +0.044 C 
ATOM     22  C   UNL     1      -4.163  11.994  16.457  0.00  0.00    +0.028 A 
ENDBRANCH  14  16
ENDBRANCH  10  12
ENDBRANCH   9  10
ENDBRANCH   5   9
ENDBRANCH   4   7
ENDBRANCH   1   4
BRANCH   1  23
ATOM     23  C   UNL     1      -3.926  10.919  24.045  0.00  0.00    +0.175 C 
BRANCH  23  24
ATOM     24  C   UNL     1      -4.287   9.595  24.736  0.00  0.00    +0.176 C 
ATOM     25  O   UNL     1      -3.058   9.009  25.247  0.00  0.00    -0.332 OA
ATOM     26  C   UNL     1      -3.221   7.783  26.035  0.00  0.00    +0.277 C 
ATOM     27  C   UNL     1      -4.012   6.723  25.230  0.00  0.00    +0.110 C 
ATOM     28  C   UNL     1      -5.312   7.309  24.640  0.00  0.00    +0.143 C 
ATOM     29  C   UNL     1      -5.027   8.583  23.843  0.00  0.00    +0.133 C 
BRANCH  29  30
ATOM     30  N   UNL     1      -6.282   9.179  23.359  0.00  0.00    -0.308 N 
ATOM     31  H   UNL     1      -6.914   9.567  24.044  0.00  0.00    +0.149 HD
ATOM     32  C   UNL     1      -6.639   9.241  22.073  0.00  0.00    +0.210 C 
ATOM     33  C   UNL     1      -5.665   8.617  21.056  0.00  0.00    +0.109 C 
ATOM     34  O   UNL     1      -7.690   9.760  21.696  0.00  0.00    -0.276 OA
ENDBRANCH  29  30
BRANCH  26  35
ATOM     35  C   UNL     1      -3.955   8.079  27.360  0.00  0.00    +0.414 C 
ATOM     36  O   UNL     1      -4.810   7.301  27.782  0.00  0.00    -0.240 OA
ATOM     37  O   UNL     1      -3.692   9.094  28.006  0.00  0.00    -0.240 OA
ENDBRANCH  26  35
BRANCH  28  38
ATOM     38  O   UNL     1      -5.929   6.347  23.785  0.00  0.00    -0.390 OA
ATOM     39  H   UNL     1      -6.835   6.611  23.606  0.00  0.00    +0.210 HD
ENDBRANCH  28  38
BRANCH  26  40
ATOM     40  O   UNL     1      -1.900   7.252  26.317  0.00  0.00    -0.343 OA
ATOM     41  C   UNL     1      -1.856   5.826  26.575  0.00  0.00    +0.198 C 
ENDBRANCH  26  40
ENDBRANCH  23  24
BRANCH  23  42
ATOM     42  O   UNL     1      -3.382  10.663  22.735  0.00  0.00    -0.387 OA
ATOM     43  H   UNL     1      -2.649  11.260  22.570  0.00  0.00    +0.210 HD
ENDBRANCH  23  42
ENDBRANCH   1  23
TORSDOF 14
