REMARK VINA RESULT:    -5.120      5.743     11.729
REMARK INTER + INTRA:         -12.030
REMARK INTER:                 -10.459
REMARK INTRA:                  -1.571
REMARK UNBOUND:                -2.869
REMARK  Name = lig_assembled_71.pdb
REMARK  17 active torsions:
REMARK  status: ('A' for Active; 'I' for Inactive)
REMARK    1  A    between atoms: _2  and  _12
REMARK    2  A    between atoms: _7  and  _22
REMARK    3  A    between atoms: _9  and  _10
REMARK    4  A    between atoms: _9  and  _22
REMARK    5  A    between atoms: _12  and  _13
REMARK    6  A    between atoms: _18  and  _38
REMARK    7  A    between atoms: _20  and  _26
REMARK    8  A    between atoms: _21  and  _25
REMARK    9  A    between atoms: _25  and  _26
REMARK   10  A    between atoms: _28  and  _29
REMARK   11  A    between atoms: _30  and  _31
REMARK   12  A    between atoms: _32  and  _34
REMARK   13  A    between atoms: _34  and  _35
REMARK   14  A    between atoms: _34  and  _36
REMARK   15  A    between atoms: _36  and  _37
REMARK   16  A    between atoms: _36  and  _38
REMARK   17  A    between atoms: _39  and  _41
REMARK                            x       y       z     vdW  Elec       q    Type
REMARK                         _______ _______ _______ _____ _____    ______ ____
ROOT
ATOM      1  C   UNL     1      -4.877  11.299  21.095  0.00  0.00    +0.163 C 
ENDROOT
BRANCH   1   2
ATOM      2  O   UNL     1      -5.289   9.929  20.960  0.00  0.00    -0.388 OA
ATOM      3  H   UNL     1      -5.254   9.673  20.035  0.00  0.00    +0.210 HD
ENDBRANCH   1   2
BRANCH   1   4
ATOM      4  C   UNL     1      -4.785  11.954  19.721  0.00  0.00    +0.141 C 
BRANCH   4   7
ATOM      5  C   UNL     1      -5.362  11.193  17.442  0.00  0.00    +0.401 C 
ATOM      6  O   UNL     1      -5.900  12.256  17.122  0.00  0.00    -0.226 OA
ATOM      7  N   UNL     1      -4.820  10.963  18.639  0.00  0.00    -0.279 N 
ATOM      8  H   UNL     1      -4.410  10.055  18.810  0.00  0.00    +0.152 HD
BRANCH   5   9
ATOM      9  O   UNL     1      -5.308  10.127  16.490  0.00  0.00    -0.444 OA
BRANCH   9  10
ATOM     10  C   UNL     1      -3.964   9.649  16.384  0.00  0.00    +0.292 C 
BRANCH  10  12
ATOM     11  N   UNL     1      -2.299   9.397  14.560  0.00  0.00    -0.131 NA
ATOM     12  C   UNL     1      -3.375  10.057  15.095  0.00  0.00    +0.120 A 
ATOM     13  C   UNL     1      -3.743  11.074  14.245  0.00  0.00    +0.137 A 
ATOM     14  N   UNL     1      -2.846  10.993  13.219  0.00  0.00    -0.242 N 
ATOM     15  N   UNL     1      -1.989   9.974  13.406  0.00  0.00    -0.065 NA
BRANCH  14  16
ATOM     16  C   UNL     1      -2.807  11.759  11.990  0.00  0.00    +0.241 C 
BRANCH  16  17
ATOM     17  C   UNL     1      -1.967  13.002  12.132  0.00  0.00    +0.241 C 
ATOM     18  O   UNL     1      -2.384  13.955  12.787  0.00  0.00    -0.273 OA
ATOM     19  N   UNL     1      -0.787  12.979  11.420  0.00  0.00    -0.253 N 
ATOM     20  H   UNL     1      -0.583  12.264  10.739  0.00  0.00    +0.158 HD
ATOM     21  C   UNL     1       0.144  14.012  11.431  0.00  0.00    +0.221 A 
ATOM     22  N   UNL     1       1.079  13.953  10.470  0.00  0.00    -0.223 NA
ATOM     23  C   UNL     1       1.945  14.988  10.419  0.00  0.00    +0.116 A 
ATOM     24  C   UNL     1       1.928  16.044  11.298  0.00  0.00    +0.039 A 
ATOM     25  C   UNL     1       0.963  15.981  12.268  0.00  0.00    +0.116 A 
ATOM     26  N   UNL     1       0.071  14.982  12.348  0.00  0.00    -0.223 NA
ENDBRANCH  16  17
ENDBRANCH  14  16
ENDBRANCH  10  12
ENDBRANCH   9  10
ENDBRANCH   5   9
ENDBRANCH   4   7
ENDBRANCH   1   4
BRANCH   1  27
ATOM     27  C   UNL     1      -3.515  11.396  21.804  0.00  0.00    +0.175 C 
BRANCH  27  28
ATOM     28  C   UNL     1      -3.664  11.537  23.326  0.00  0.00    +0.176 C 
ATOM     29  O   UNL     1      -4.201  10.288  23.841  0.00  0.00    -0.332 OA
ATOM     30  C   UNL     1      -4.313  10.199  25.300  0.00  0.00    +0.277 C 
ATOM     31  C   UNL     1      -5.135  11.389  25.852  0.00  0.00    +0.110 C 
ATOM     32  C   UNL     1      -4.622  12.738  25.307  0.00  0.00    +0.143 C 
ATOM     33  C   UNL     1      -4.542  12.719  23.781  0.00  0.00    +0.133 C 
BRANCH  33  34
ATOM     34  N   UNL     1      -3.970  13.978  23.278  0.00  0.00    -0.308 N 
ATOM     35  H   UNL     1      -2.996  14.165  23.474  0.00  0.00    +0.149 HD
ATOM     36  C   UNL     1      -4.652  14.889  22.581  0.00  0.00    +0.210 C 
ATOM     37  C   UNL     1      -6.140  14.587  22.321  0.00  0.00    +0.109 C 
ATOM     38  O   UNL     1      -4.143  15.929  22.160  0.00  0.00    -0.276 OA
ENDBRANCH  33  34
BRANCH  30  39
ATOM     39  C   UNL     1      -2.916  10.189  25.956  0.00  0.00    +0.414 C 
ATOM     40  O   UNL     1      -2.798   9.955  27.158  0.00  0.00    -0.240 OA
ATOM     41  O   UNL     1      -1.909  10.414  25.284  0.00  0.00    -0.240 OA
ENDBRANCH  30  39
BRANCH  30  42
ATOM     42  O   UNL     1      -5.013   8.970  25.622  0.00  0.00    -0.343 OA
ATOM     43  C   UNL     1      -6.451   9.019  25.443  0.00  0.00    +0.198 C 
ENDBRANCH  30  42
BRANCH  32  44
ATOM     44  O   UNL     1      -5.498  13.788  25.719  0.00  0.00    -0.390 OA
ATOM     45  H   UNL     1      -6.286  13.782  25.172  0.00  0.00    +0.210 HD
ENDBRANCH  32  44
ENDBRANCH  27  28
BRANCH  27  46
ATOM     46  O   UNL     1      -2.758  12.503  21.274  0.00  0.00    -0.387 OA
ATOM     47  H   UNL     1      -2.542  12.332  20.354  0.00  0.00    +0.210 HD
ENDBRANCH  27  46
ENDBRANCH   1  27
TORSDOF 15
