REMARK VINA RESULT:    -5.080      2.056      2.669
REMARK INTER + INTRA:         -11.989
REMARK INTER:                  -8.916
REMARK INTRA:                  -3.072
REMARK UNBOUND:                -2.453
REMARK  Name = lig_assembled_75.pdb
REMARK  19 active torsions:
REMARK  status: ('A' for Active; 'I' for Inactive)
REMARK    1  A    between atoms: _2  and  _9
REMARK    2  A    between atoms: _4  and  _23
REMARK    3  A    between atoms: _6  and  _7
REMARK    4  A    between atoms: _6  and  _23
REMARK    5  A    between atoms: _11  and  _12
REMARK    6  A    between atoms: _13  and  _14
REMARK    7  A    between atoms: _14  and  _17
REMARK    8  A    between atoms: _19  and  _39
REMARK    9  A    between atoms: _21  and  _27
REMARK   10  A    between atoms: _22  and  _26
REMARK   11  A    between atoms: _26  and  _27
REMARK   12  A    between atoms: _29  and  _30
REMARK   13  A    between atoms: _31  and  _32
REMARK   14  A    between atoms: _33  and  _35
REMARK   15  A    between atoms: _35  and  _36
REMARK   16  A    between atoms: _35  and  _37
REMARK   17  A    between atoms: _37  and  _38
REMARK   18  A    between atoms: _37  and  _39
REMARK   19  A    between atoms: _40  and  _42
REMARK                            x       y       z     vdW  Elec       q    Type
REMARK                         _______ _______ _______ _____ _____    ______ ____
ROOT
ATOM      1  C   UNL     1      -3.167  13.216  24.332  0.00  0.00    +0.141 C 
ENDROOT
BRANCH   1   4
ATOM      2  C   UNL     1      -4.446  14.364  22.556  0.00  0.00    +0.401 C 
ATOM      3  O   UNL     1      -3.723  15.364  22.552  0.00  0.00    -0.226 OA
ATOM      4  N   UNL     1      -4.263  13.316  23.360  0.00  0.00    -0.279 N 
ATOM      5  H   UNL     1      -4.915  12.547  23.296  0.00  0.00    +0.152 HD
BRANCH   2   6
ATOM      6  O   UNL     1      -5.556  14.306  21.657  0.00  0.00    -0.444 OA
BRANCH   6   7
ATOM      7  C   UNL     1      -6.118  12.991  21.676  0.00  0.00    +0.292 C 
BRANCH   7   9
ATOM      8  N   UNL     1      -7.051  12.532  19.432  0.00  0.00    -0.131 NA
ATOM      9  C   UNL     1      -6.040  12.379  20.337  0.00  0.00    +0.121 A 
ATOM     10  C   UNL     1      -5.047  11.609  19.777  0.00  0.00    +0.143 A 
ATOM     11  N   UNL     1      -5.499  11.308  18.514  0.00  0.00    -0.220 N 
ATOM     12  N   UNL     1      -6.717  11.877  18.328  0.00  0.00    -0.060 NA
BRANCH  11  13
ATOM     13  C   UNL     1      -4.882  10.515  17.512  0.00  0.00    +0.068 A 
ATOM     14  C   UNL     1      -4.132  11.143  16.502  0.00  0.00    +0.035 A 
ATOM     15  C   UNL     1      -3.565  10.397  15.459  0.00  0.00    -0.023 A 
ATOM     16  C   UNL     1      -3.704   9.003  15.477  0.00  0.00    +0.008 A 
ATOM     17  C   UNL     1      -4.429   8.372  16.490  0.00  0.00    +0.003 A 
ATOM     18  C   UNL     1      -5.025   9.123  17.502  0.00  0.00    +0.028 A 
BRANCH  15  19
ATOM     19  C   UNL     1      -2.813  11.020  14.360  0.00  0.00    +0.015 C 
ATOM     20  C   UNL     1      -3.184  12.160  13.754  0.00  0.00    +0.092 C 
BRANCH  20  21
ATOM     21  C   UNL     1      -2.391  12.678  12.623  0.00  0.00    +0.330 C 
ATOM     22  O   UNL     1      -2.392  13.837  12.248  0.00  0.00    -0.246 OA
BRANCH  21  23
ATOM     23  O   UNL     1      -1.642  11.715  12.049  0.00  0.00    -0.478 OA
ATOM     24  H   UNL     1      -0.701  11.932  11.922  0.00  0.00    +0.295 HD
ENDBRANCH  21  23
ENDBRANCH  20  21
ENDBRANCH  15  19
ENDBRANCH  11  13
ENDBRANCH   7   9
ENDBRANCH   6   7
ENDBRANCH   2   6
ENDBRANCH   1   4
BRANCH   1  25
ATOM     25  C   UNL     1      -2.863  11.768  24.700  0.00  0.00    +0.163 C 
BRANCH  25  26
ATOM     26  O   UNL     1      -3.026  11.575  26.115  0.00  0.00    -0.388 OA
ATOM     27  H   UNL     1      -3.207  12.420  26.534  0.00  0.00    +0.210 HD
ENDBRANCH  25  26
BRANCH  25  28
ATOM     28  C   UNL     1      -3.791  10.831  23.907  0.00  0.00    +0.175 C 
BRANCH  28  29
ATOM     29  C   UNL     1      -4.204   9.599  24.725  0.00  0.00    +0.176 C 
ATOM     30  O   UNL     1      -2.997   8.994  25.265  0.00  0.00    -0.332 OA
ATOM     31  C   UNL     1      -3.206   7.858  26.167  0.00  0.00    +0.277 C 
ATOM     32  C   UNL     1      -4.072   6.773  25.480  0.00  0.00    +0.110 C 
ATOM     33  C   UNL     1      -5.352   7.374  24.863  0.00  0.00    +0.143 C 
ATOM     34  C   UNL     1      -5.019   8.550  23.945  0.00  0.00    +0.133 C 
BRANCH  34  35
ATOM     35  N   UNL     1      -6.252   9.169  23.432  0.00  0.00    -0.308 N 
ATOM     36  H   UNL     1      -6.863   9.624  24.095  0.00  0.00    +0.149 HD
ATOM     37  C   UNL     1      -6.616   9.168  22.147  0.00  0.00    +0.210 C 
ATOM     38  C   UNL     1      -5.677   8.443  21.164  0.00  0.00    +0.109 C 
ATOM     39  O   UNL     1      -7.647   9.706  21.743  0.00  0.00    -0.276 OA
ENDBRANCH  34  35
BRANCH  31  40
ATOM     40  C   UNL     1      -3.890   8.314  27.472  0.00  0.00    +0.414 C 
ATOM     41  O   UNL     1      -4.805   7.650  27.958  0.00  0.00    -0.240 OA
ATOM     42  O   UNL     1      -3.528   9.345  28.040  0.00  0.00    -0.240 OA
ENDBRANCH  31  40
BRANCH  31  43
ATOM     43  O   UNL     1      -1.909   7.282  26.471  0.00  0.00    -0.343 OA
ATOM     44  C   UNL     1      -1.951   6.004  27.155  0.00  0.00    +0.198 C 
ENDBRANCH  31  43
BRANCH  33  45
ATOM     45  O   UNL     1      -6.041   6.373  24.114  0.00  0.00    -0.390 OA
ATOM     46  H   UNL     1      -5.697   5.506  24.344  0.00  0.00    +0.210 HD
ENDBRANCH  33  45
ENDBRANCH  28  29
BRANCH  28  47
ATOM     47  O   UNL     1      -3.152  10.421  22.681  0.00  0.00    -0.387 OA
ATOM     48  H   UNL     1      -3.176   9.464  22.612  0.00  0.00    +0.210 HD
ENDBRANCH  28  47
ENDBRANCH  25  28
ENDBRANCH   1  25
TORSDOF 17
