REMARK VINA RESULT:    -4.216      4.422      6.595
REMARK INTER + INTRA:         -10.756
REMARK INTER:                  -7.373
REMARK INTRA:                  -3.383
REMARK UNBOUND:                -3.213
REMARK  Name = lig_assembled_46.pdb
REMARK  17 active torsions:
REMARK  status: ('A' for Active; 'I' for Inactive)
REMARK    1  A    between atoms: _2  and  _9
REMARK    2  A    between atoms: _4  and  _19
REMARK    3  A    between atoms: _6  and  _7
REMARK    4  A    between atoms: _6  and  _19
REMARK    5  A    between atoms: _9  and  _10
REMARK    6  A    between atoms: _15  and  _35
REMARK    7  A    between atoms: _17  and  _23
REMARK    8  A    between atoms: _18  and  _22
REMARK    9  A    between atoms: _22  and  _23
REMARK   10  A    between atoms: _25  and  _26
REMARK   11  A    between atoms: _27  and  _28
REMARK   12  A    between atoms: _29  and  _31
REMARK   13  A    between atoms: _31  and  _32
REMARK   14  A    between atoms: _31  and  _33
REMARK   15  A    between atoms: _33  and  _34
REMARK   16  A    between atoms: _33  and  _35
REMARK   17  A    between atoms: _36  and  _38
REMARK                            x       y       z     vdW  Elec       q    Type
REMARK                         _______ _______ _______ _____ _____    ______ ____
ROOT
ATOM      1  C   UNL     1      -3.441  11.028  31.386  0.00  0.00    +0.163 C 
ENDROOT
BRANCH   1   2
ATOM      2  O   UNL     1      -2.036  11.199  31.637  0.00  0.00    -0.388 OA
ATOM      3  H   UNL     1      -1.768  12.082  31.372  0.00  0.00    +0.210 HD
ENDBRANCH   1   2
BRANCH   1   4
ATOM      4  C   UNL     1      -3.726   9.587  30.975  0.00  0.00    +0.141 C 
BRANCH   4   7
ATOM      5  C   UNL     1      -2.997   7.975  29.250  0.00  0.00    +0.401 C 
ATOM      6  O   UNL     1      -3.770   7.088  29.618  0.00  0.00    -0.226 OA
ATOM      7  N   UNL     1      -2.905   9.172  29.831  0.00  0.00    -0.279 N 
ATOM      8  H   UNL     1      -2.233   9.831  29.463  0.00  0.00    +0.152 HD
BRANCH   5   9
ATOM      9  O   UNL     1      -2.133   7.726  28.138  0.00  0.00    -0.444 OA
BRANCH   9  10
ATOM     10  C   UNL     1      -2.852   7.933  26.919  0.00  0.00    +0.292 C 
BRANCH  10  12
ATOM     11  N   UNL     1      -1.842  10.186  27.092  0.00  0.00    -0.131 NA
ATOM     12  C   UNL     1      -2.709   9.330  26.468  0.00  0.00    +0.120 A 
ATOM     13  C   UNL     1      -3.313   9.987  25.418  0.00  0.00    +0.137 A 
ATOM     14  N   UNL     1      -2.728  11.221  25.419  0.00  0.00    -0.247 N 
ATOM     15  N   UNL     1      -1.853  11.341  26.437  0.00  0.00    -0.065 NA
BRANCH  14  16
ATOM     16  C   UNL     1      -2.761  12.218  24.363  0.00  0.00    +0.180 C 
BRANCH  16  17
ATOM     17  C   UNL     1      -4.002  13.075  24.375  0.00  0.00    -0.026 A 
ATOM     18  C   UNL     1      -4.832  13.127  25.506  0.00  0.00    +0.005 A 
ATOM     19  C   UNL     1      -5.926  13.996  25.543  0.00  0.00    +0.000 A 
ATOM     20  C   UNL     1      -6.200  14.822  24.457  0.00  0.00    +0.000 A 
ATOM     21  C   UNL     1      -5.389  14.774  23.325  0.00  0.00    +0.000 A 
ATOM     22  C   UNL     1      -4.296  13.906  23.284  0.00  0.00    +0.005 A 
ENDBRANCH  16  17
ENDBRANCH  14  16
ENDBRANCH  10  12
ENDBRANCH   9  10
ENDBRANCH   5   9
ENDBRANCH   4   7
ENDBRANCH   1   4
BRANCH   1  23
ATOM     23  C   UNL     1      -3.922  11.983  30.280  0.00  0.00    +0.175 C 
BRANCH  23  24
ATOM     24  C   UNL     1      -5.388  11.732  29.897  0.00  0.00    +0.176 C 
ATOM     25  O   UNL     1      -5.409  11.158  28.561  0.00  0.00    -0.332 OA
ATOM     26  C   UNL     1      -6.728  10.751  28.066  0.00  0.00    +0.277 C 
ATOM     27  C   UNL     1      -7.723  11.935  28.143  0.00  0.00    +0.110 C 
ATOM     28  C   UNL     1      -7.713  12.598  29.537  0.00  0.00    +0.143 C 
ATOM     29  C   UNL     1      -6.292  12.978  29.954  0.00  0.00    +0.133 C 
BRANCH  29  30
ATOM     30  N   UNL     1      -6.285  13.529  31.318  0.00  0.00    -0.308 N 
ATOM     31  H   UNL     1      -6.688  12.968  32.055  0.00  0.00    +0.149 HD
ATOM     32  C   UNL     1      -5.780  14.721  31.646  0.00  0.00    +0.210 C 
ATOM     33  C   UNL     1      -5.197  15.563  30.495  0.00  0.00    +0.109 C 
ATOM     34  O   UNL     1      -5.775  15.151  32.800  0.00  0.00    -0.276 OA
ENDBRANCH  29  30
BRANCH  26  35
ATOM     35  C   UNL     1      -7.276   9.563  28.883  0.00  0.00    +0.414 C 
ATOM     36  O   UNL     1      -8.399   9.619  29.382  0.00  0.00    -0.240 OA
ATOM     37  O   UNL     1      -6.595   8.549  29.044  0.00  0.00    -0.240 OA
ENDBRANCH  26  35
BRANCH  26  38
ATOM     38  O   UNL     1      -6.585  10.363  26.676  0.00  0.00    -0.343 OA
ATOM     39  C   UNL     1      -7.718  10.686  25.830  0.00  0.00    +0.198 C 
ENDBRANCH  26  38
BRANCH  28  40
ATOM     40  O   UNL     1      -8.527  13.771  29.518  0.00  0.00    -0.390 OA
ATOM     41  H   UNL     1      -7.994  14.527  29.261  0.00  0.00    +0.210 HD
ENDBRANCH  28  40
ENDBRANCH  23  24
BRANCH  23  42
ATOM     42  O   UNL     1      -3.078  11.864  29.119  0.00  0.00    -0.387 OA
ATOM     43  H   UNL     1      -2.412  12.556  29.134  0.00  0.00    +0.210 HD
ENDBRANCH  23  42
ENDBRANCH   1  23
TORSDOF 15
