REMARK VINA RESULT:    -5.319      6.752     11.753
REMARK INTER + INTRA:         -11.043
REMARK INTER:                  -8.749
REMARK INTRA:                  -2.294
REMARK UNBOUND:                -1.837
REMARK  Name = lig_assembled_2.pdb
REMARK  16 active torsions:
REMARK  status: ('A' for Active; 'I' for Inactive)
REMARK    1  A    between atoms: _2  and  _9
REMARK    2  A    between atoms: _4  and  _18
REMARK    3  A    between atoms: _6  and  _7
REMARK    4  A    between atoms: _6  and  _18
REMARK    5  A    between atoms: _14  and  _34
REMARK    6  A    between atoms: _16  and  _22
REMARK    7  A    between atoms: _17  and  _21
REMARK    8  A    between atoms: _21  and  _22
REMARK    9  A    between atoms: _24  and  _25
REMARK   10  A    between atoms: _26  and  _27
REMARK   11  A    between atoms: _28  and  _30
REMARK   12  A    between atoms: _30  and  _31
REMARK   13  A    between atoms: _30  and  _32
REMARK   14  A    between atoms: _32  and  _33
REMARK   15  A    between atoms: _32  and  _34
REMARK   16  A    between atoms: _35  and  _37
REMARK                            x       y       z     vdW  Elec       q    Type
REMARK                         _______ _______ _______ _____ _____    ______ ____
ROOT
ATOM      1  C   UNL     1      -3.448  12.519  24.101  0.00  0.00    +0.163 C 
ENDROOT
BRANCH   1   2
ATOM      2  O   UNL     1      -2.037  12.435  24.361  0.00  0.00    -0.388 OA
ATOM      3  H   UNL     1      -1.873  11.764  25.029  0.00  0.00    +0.210 HD
ENDBRANCH   1   2
BRANCH   1   4
ATOM      4  C   UNL     1      -3.740  13.703  23.185  0.00  0.00    +0.141 C 
BRANCH   4   7
ATOM      5  C   UNL     1      -5.871  13.688  21.934  0.00  0.00    +0.401 C 
ATOM      6  O   UNL     1      -6.472  14.373  22.765  0.00  0.00    -0.226 OA
ATOM      7  N   UNL     1      -4.594  13.322  22.053  0.00  0.00    -0.279 N 
ATOM      8  H   UNL     1      -4.191  12.751  21.323  0.00  0.00    +0.152 HD
BRANCH   5   9
ATOM      9  O   UNL     1      -6.566  13.243  20.766  0.00  0.00    -0.444 OA
BRANCH   9  10
ATOM     10  C   UNL     1      -6.399  11.831  20.620  0.00  0.00    +0.292 C 
BRANCH  10  12
ATOM     11  N   UNL     1      -6.415  12.244  18.180  0.00  0.00    -0.131 NA
ATOM     12  C   UNL     1      -5.982  11.505  19.242  0.00  0.00    +0.121 A 
ATOM     13  C   UNL     1      -5.152  10.505  18.787  0.00  0.00    +0.143 A 
ATOM     14  N   UNL     1      -5.085  10.693  17.426  0.00  0.00    -0.220 N 
ATOM     15  N   UNL     1      -5.871  11.741  17.080  0.00  0.00    -0.060 NA
BRANCH  14  16
ATOM     16  C   UNL     1      -4.319   9.978  16.468  0.00  0.00    +0.067 A 
ATOM     17  C   UNL     1      -4.225   8.580  16.518  0.00  0.00    +0.029 A 
ATOM     18  C   UNL     1      -3.435   7.898  15.587  0.00  0.00    +0.022 A 
ATOM     19  C   UNL     1      -2.741   8.606  14.607  0.00  0.00    +0.041 A 
ATOM     20 CL   UNL     1      -1.754   7.759  13.482  0.00  0.00    -0.084 Cl
ATOM     21  C   UNL     1      -2.839   9.993  14.540  0.00  0.00    +0.022 A 
ATOM     22  C   UNL     1      -3.628  10.682  15.466  0.00  0.00    +0.029 A 
ENDBRANCH  14  16
ENDBRANCH  10  12
ENDBRANCH   9  10
ENDBRANCH   5   9
ENDBRANCH   4   7
ENDBRANCH   1   4
BRANCH   1  23
ATOM     23  C   UNL     1      -4.240  12.674  25.410  0.00  0.00    +0.175 C 
BRANCH  23  24
ATOM     24  C   UNL     1      -3.849  11.615  26.451  0.00  0.00    +0.176 C 
ATOM     25  O   UNL     1      -3.804  10.325  25.782  0.00  0.00    -0.332 OA
ATOM     26  C   UNL     1      -3.341   9.201  26.602  0.00  0.00    +0.277 C 
ATOM     27  C   UNL     1      -4.187   9.091  27.895  0.00  0.00    +0.110 C 
ATOM     28  C   UNL     1      -4.290  10.446  28.625  0.00  0.00    +0.143 C 
ATOM     29  C   UNL     1      -4.777  11.544  27.678  0.00  0.00    +0.133 C 
BRANCH  29  30
ATOM     30  N   UNL     1      -4.788  12.847  28.362  0.00  0.00    -0.308 N 
ATOM     31  H   UNL     1      -3.900  13.243  28.637  0.00  0.00    +0.149 HD
ATOM     32  C   UNL     1      -5.894  13.540  28.643  0.00  0.00    +0.210 C 
ATOM     33  C   UNL     1      -7.233  12.897  28.235  0.00  0.00    +0.109 C 
ATOM     34  O   UNL     1      -5.872  14.636  29.204  0.00  0.00    -0.276 OA
ENDBRANCH  29  30
BRANCH  26  35
ATOM     35  C   UNL     1      -1.853   9.370  26.972  0.00  0.00    +0.414 C 
ATOM     36  O   UNL     1      -1.093   9.980  26.221  0.00  0.00    -0.240 OA
ATOM     37  O   UNL     1      -1.413   8.897  28.021  0.00  0.00    -0.240 OA
ENDBRANCH  26  35
BRANCH  28  38
ATOM     38  O   UNL     1      -5.197  10.335  29.723  0.00  0.00    -0.390 OA
ATOM     39  H   UNL     1      -5.427  11.212  30.039  0.00  0.00    +0.210 HD
ENDBRANCH  28  38
BRANCH  26  40
ATOM     40  O   UNL     1      -3.519   7.982  25.835  0.00  0.00    -0.343 OA
ATOM     41  C   UNL     1      -4.569   8.035  24.836  0.00  0.00    +0.198 C 
ENDBRANCH  26  40
ENDBRANCH  23  24
BRANCH  23  42
ATOM     42  O   UNL     1      -5.656  12.609  25.144  0.00  0.00    -0.387 OA
ATOM     43  H   UNL     1      -6.010  13.499  25.076  0.00  0.00    +0.210 HD
ENDBRANCH  23  42
ENDBRANCH   1  23
TORSDOF 14
