REMARK VINA RESULT:    -4.688      2.793      4.899
REMARK INTER + INTRA:         -11.496
REMARK INTER:                  -8.936
REMARK INTRA:                  -2.560
REMARK UNBOUND:                -2.560
REMARK  Name = lig_assembled_18.pdb
REMARK  19 active torsions:
REMARK  status: ('A' for Active; 'I' for Inactive)
REMARK    1  A    between atoms: _2  and  _10
REMARK    2  A    between atoms: _3  and  _12
REMARK    3  A    between atoms: _5  and  _21
REMARK    4  A    between atoms: _7  and  _8
REMARK    5  A    between atoms: _7  and  _21
REMARK    6  A    between atoms: _10  and  _11
REMARK    7  A    between atoms: _12  and  _13
REMARK    8  A    between atoms: _17  and  _37
REMARK    9  A    between atoms: _19  and  _25
REMARK   10  A    between atoms: _20  and  _24
REMARK   11  A    between atoms: _24  and  _25
REMARK   12  A    between atoms: _27  and  _28
REMARK   13  A    between atoms: _29  and  _30
REMARK   14  A    between atoms: _31  and  _33
REMARK   15  A    between atoms: _33  and  _34
REMARK   16  A    between atoms: _33  and  _35
REMARK   17  A    between atoms: _35  and  _36
REMARK   18  A    between atoms: _35  and  _37
REMARK   19  A    between atoms: _38  and  _40
REMARK                            x       y       z     vdW  Elec       q    Type
REMARK                         _______ _______ _______ _____ _____    ______ ____
ROOT
ATOM      1  C   UNL     1      -2.984  11.701  23.644  0.00  0.00    +0.163 C 
ENDROOT
BRANCH   1   2
ATOM      2  O   UNL     1      -3.646  10.476  23.288  0.00  0.00    -0.388 OA
ATOM      3  H   UNL     1      -3.208  10.084  22.529  0.00  0.00    +0.210 HD
ENDBRANCH   1   2
BRANCH   1   4
ATOM      4  C   UNL     1      -3.721  12.916  23.056  0.00  0.00    +0.175 C 
BRANCH   4   5
ATOM      5  C   UNL     1      -4.850  12.501  22.102  0.00  0.00    +0.176 C 
ATOM      6  O   UNL     1      -4.246  11.846  20.952  0.00  0.00    -0.332 OA
ATOM      7  C   UNL     1      -5.185  11.283  19.977  0.00  0.00    +0.277 C 
ATOM      8  C   UNL     1      -6.182  12.368  19.498  0.00  0.00    +0.110 C 
ATOM      9  C   UNL     1      -6.826  13.114  20.685  0.00  0.00    +0.143 C 
ATOM     10  C   UNL     1      -5.759  13.654  21.638  0.00  0.00    +0.133 C 
BRANCH  10  11
ATOM     11  N   UNL     1      -6.386  14.287  22.809  0.00  0.00    -0.308 N 
ATOM     12  H   UNL     1      -7.016  13.727  23.367  0.00  0.00    +0.149 HD
ATOM     13  C   UNL     1      -6.179  15.553  23.182  0.00  0.00    +0.210 C 
ATOM     14  C   UNL     1      -5.235  16.387  22.296  0.00  0.00    +0.109 C 
ATOM     15  O   UNL     1      -6.707  16.052  24.176  0.00  0.00    -0.276 OA
ENDBRANCH  10  11
BRANCH   7  16
ATOM     16  C   UNL     1      -5.965  10.101  20.588  0.00  0.00    +0.414 C 
ATOM     17  O   UNL     1      -7.176   9.991  20.396  0.00  0.00    -0.240 OA
ATOM     18  O   UNL     1      -5.384   9.257  21.272  0.00  0.00    -0.240 OA
ENDBRANCH   7  16
BRANCH   7  19
ATOM     19  O   UNL     1      -4.422  10.825  18.832  0.00  0.00    -0.343 OA
ATOM     20  C   UNL     1      -4.851  11.364  17.555  0.00  0.00    +0.198 C 
ENDBRANCH   7  19
BRANCH   9  21
ATOM     21  O   UNL     1      -7.617  14.199  20.200  0.00  0.00    -0.390 OA
ATOM     22  H   UNL     1      -7.246  15.029  20.508  0.00  0.00    +0.210 HD
ENDBRANCH   9  21
ENDBRANCH   4   5
BRANCH   4  23
ATOM     23  O   UNL     1      -2.789  13.781  22.376  0.00  0.00    -0.387 OA
ATOM     24  H   UNL     1      -3.124  13.988  21.500  0.00  0.00    +0.210 HD
ENDBRANCH   4  23
ENDBRANCH   1   4
BRANCH   1  25
ATOM     25  C   UNL     1      -2.913  11.834  25.162  0.00  0.00    +0.141 C 
BRANCH  25  28
ATOM     26  C   UNL     1      -2.400   9.749  26.386  0.00  0.00    +0.401 C 
ATOM     27  O   UNL     1      -1.181   9.930  26.372  0.00  0.00    -0.226 OA
ATOM     28  N   UNL     1      -3.284  10.585  25.839  0.00  0.00    -0.279 N 
ATOM     29  H   UNL     1      -4.264  10.346  25.893  0.00  0.00    +0.152 HD
BRANCH  26  30
ATOM     30  O   UNL     1      -2.922   8.577  27.018  0.00  0.00    -0.444 OA
BRANCH  30  31
ATOM     31  C   UNL     1      -4.257   8.830  27.465  0.00  0.00    +0.292 C 
BRANCH  31  33
ATOM     32  N   UNL     1      -4.918  10.494  29.180  0.00  0.00    -0.131 NA
ATOM     33  C   UNL     1      -4.246   9.348  28.847  0.00  0.00    +0.120 A 
ATOM     34  C   UNL     1      -3.628   8.848  29.970  0.00  0.00    +0.137 A 
ATOM     35  N   UNL     1      -3.984   9.716  30.959  0.00  0.00    -0.242 N 
ATOM     36  N   UNL     1      -4.742  10.717  30.475  0.00  0.00    -0.065 NA
BRANCH  35  37
ATOM     37  C   UNL     1      -3.557   9.736  32.338  0.00  0.00    +0.240 C 
BRANCH  37  38
ATOM     38  C   UNL     1      -3.245  11.134  32.821  0.00  0.00    +0.235 C 
ATOM     39  O   UNL     1      -3.637  11.552  33.908  0.00  0.00    -0.274 OA
ATOM     40  N   UNL     1      -2.443  11.879  31.981  0.00  0.00    -0.309 N 
ATOM     41  H   UNL     1      -2.277  11.574  31.032  0.00  0.00    +0.149 HD
BRANCH  40  42
ATOM     42  C   UNL     1      -2.047  13.231  32.318  0.00  0.00    +0.146 C 
BRANCH  42  43
ATOM     43  C   UNL     1      -3.097  14.191  31.860  0.00  0.00    +0.007 A 
ATOM     44  S   UNL     1      -3.665  15.428  32.901  0.00  0.00    -0.100 S 
ATOM     45  C   UNL     1      -4.792  15.978  31.738  0.00  0.00    +0.045 A 
ATOM     46  C   UNL     1      -4.731  15.249  30.571  0.00  0.00    +0.008 A 
ATOM     47  C   UNL     1      -3.746  14.222  30.640  0.00  0.00    +0.013 A 
ENDBRANCH  42  43
ENDBRANCH  40  42
ENDBRANCH  37  38
ENDBRANCH  35  37
ENDBRANCH  31  33
ENDBRANCH  30  31
ENDBRANCH  26  30
ENDBRANCH  25  28
ENDBRANCH   1  25
TORSDOF 17
