REMARK VINA RESULT:    -5.724      4.745      6.968
REMARK INTER + INTRA:         -12.382
REMARK INTER:                  -8.950
REMARK INTRA:                  -3.432
REMARK UNBOUND:                -2.475
REMARK  Name = lig_assembled_25.pdb
REMARK  16 active torsions:
REMARK  status: ('A' for Active; 'I' for Inactive)
REMARK    1  A    between atoms: _2  and  _9
REMARK    2  A    between atoms: _4  and  _25
REMARK    3  A    between atoms: _6  and  _7
REMARK    4  A    between atoms: _6  and  _25
REMARK    5  A    between atoms: _21  and  _41
REMARK    6  A    between atoms: _23  and  _29
REMARK    7  A    between atoms: _24  and  _28
REMARK    8  A    between atoms: _28  and  _29
REMARK    9  A    between atoms: _31  and  _32
REMARK   10  A    between atoms: _33  and  _34
REMARK   11  A    between atoms: _35  and  _37
REMARK   12  A    between atoms: _37  and  _38
REMARK   13  A    between atoms: _37  and  _39
REMARK   14  A    between atoms: _39  and  _40
REMARK   15  A    between atoms: _39  and  _41
REMARK   16  A    between atoms: _42  and  _44
REMARK                            x       y       z     vdW  Elec       q    Type
REMARK                         _______ _______ _______ _____ _____    ______ ____
ROOT
ATOM      1  C   UNL     1      -4.278  11.658  31.491  0.00  0.00    +0.141 C 
ENDROOT
BRANCH   1   4
ATOM      2  C   UNL     1      -6.332  11.045  30.263  0.00  0.00    +0.401 C 
ATOM      3  O   UNL     1      -6.801  10.382  31.191  0.00  0.00    -0.226 OA
ATOM      4  N   UNL     1      -5.155  11.671  30.315  0.00  0.00    -0.279 N 
ATOM      5  H   UNL     1      -4.851  12.182  29.498  0.00  0.00    +0.152 HD
BRANCH   2   6
ATOM      6  O   UNL     1      -7.075  11.160  29.046  0.00  0.00    -0.444 OA
BRANCH   6   7
ATOM      7  C   UNL     1      -7.150  12.536  28.661  0.00  0.00    +0.292 C 
BRANCH   7   9
ATOM      8  N   UNL     1      -5.200  12.902  27.191  0.00  0.00    -0.131 NA
ATOM      9  C   UNL     1      -6.550  12.730  27.327  0.00  0.00    +0.120 A 
ATOM     10  C   UNL     1      -7.141  12.797  26.085  0.00  0.00    +0.138 A 
ATOM     11  N   UNL     1      -6.100  13.030  25.231  0.00  0.00    -0.240 N 
ATOM     12  N   UNL     1      -4.931  13.081  25.906  0.00  0.00    -0.064 NA
BRANCH  11  13
ATOM     13  C   UNL     1      -6.106  13.298  23.802  0.00  0.00    +0.170 C 
ATOM     14  C   UNL     1      -5.074  12.469  23.050  0.00  0.00    -0.011 A 
ATOM     15  C   UNL     1      -4.217  13.316  22.314  0.00  0.00    -0.012 A 
ATOM     16  C   UNL     1      -4.605  14.694  22.545  0.00  0.00    -0.012 A 
ATOM     17  C   UNL     1      -4.094  15.869  22.020  0.00  0.00    +0.009 A 
ATOM     18  C   UNL     1      -4.688  17.078  22.395  0.00  0.00    +0.001 A 
ATOM     19  C   UNL     1      -5.774  17.101  23.286  0.00  0.00    +0.000 A 
ATOM     20  C   UNL     1      -6.291  15.917  23.817  0.00  0.00    +0.006 A 
ATOM     21  C   UNL     1      -3.208  12.784  21.529  0.00  0.00    +0.009 A 
ATOM     22  C   UNL     1      -3.063  11.394  21.485  0.00  0.00    +0.001 A 
ATOM     23  C   UNL     1      -3.920  10.555  22.215  0.00  0.00    +0.000 A 
ATOM     24  C   UNL     1      -4.939  11.088  23.005  0.00  0.00    +0.006 A 
ATOM     25  C   UNL     1      -5.699  14.721  23.442  0.00  0.00    -0.011 A 
ENDBRANCH  11  13
ENDBRANCH   7   9
ENDBRANCH   6   7
ENDBRANCH   2   6
ENDBRANCH   1   4
BRANCH   1  26
ATOM     26  C   UNL     1      -2.918  11.041  31.180  0.00  0.00    +0.163 C 
BRANCH  26  27
ATOM     27  O   UNL     1      -1.909  11.627  32.018  0.00  0.00    -0.388 OA
ATOM     28  H   UNL     1      -1.133  11.832  31.490  0.00  0.00    +0.210 HD
ENDBRANCH  26  27
BRANCH  26  29
ATOM     29  C   UNL     1      -2.986   9.518  31.384  0.00  0.00    +0.175 C 
BRANCH  29  30
ATOM     30  C   UNL     1      -2.892   8.752  30.056  0.00  0.00    +0.176 C 
ATOM     31  O   UNL     1      -3.656   9.487  29.061  0.00  0.00    -0.332 OA
ATOM     32  C   UNL     1      -3.594   8.957  27.695  0.00  0.00    +0.277 C 
ATOM     33  C   UNL     1      -4.006   7.465  27.674  0.00  0.00    +0.110 C 
ATOM     34  C   UNL     1      -3.242   6.648  28.738  0.00  0.00    +0.143 C 
ATOM     35  C   UNL     1      -3.372   7.290  30.120  0.00  0.00    +0.133 C 
BRANCH  35  36
ATOM     36  N   UNL     1      -2.569   6.552  31.108  0.00  0.00    -0.308 N 
ATOM     37  H   UNL     1      -1.563   6.603  31.031  0.00  0.00    +0.149 HD
ATOM     38  C   UNL     1      -3.083   5.819  32.100  0.00  0.00    +0.210 C 
ATOM     39  C   UNL     1      -4.620   5.741  32.174  0.00  0.00    +0.109 C 
ATOM     40  O   UNL     1      -2.387   5.224  32.922  0.00  0.00    -0.276 OA
ENDBRANCH  35  36
BRANCH  32  41
ATOM     41  C   UNL     1      -2.172   9.108  27.115  0.00  0.00    +0.414 C 
ATOM     42  O   UNL     1      -1.696   8.224  26.403  0.00  0.00    -0.240 OA
ATOM     43  O   UNL     1      -1.502  10.112  27.358  0.00  0.00    -0.240 OA
ENDBRANCH  32  41
BRANCH  34  44
ATOM     44  O   UNL     1      -3.759   5.318  28.787  0.00  0.00    -0.390 OA
ATOM     45  H   UNL     1      -3.169   4.763  29.303  0.00  0.00    +0.210 HD
ENDBRANCH  34  44
BRANCH  32  46
ATOM     46  O   UNL     1      -4.535   9.703  26.881  0.00  0.00    -0.343 OA
ATOM     47  C   UNL     1      -5.451   8.890  26.105  0.00  0.00    +0.198 C 
ENDBRANCH  32  46
ENDBRANCH  29  30
BRANCH  29  48
ATOM     48  O   UNL     1      -4.200   9.163  32.076  0.00  0.00    -0.387 OA
ATOM     49  H   UNL     1      -4.760   8.643  31.496  0.00  0.00    +0.210 HD
ENDBRANCH  29  48
ENDBRANCH  26  29
ENDBRANCH   1  26
TORSDOF 14
