REMARK VINA RESULT:    -5.078      4.655     11.968
REMARK INTER + INTRA:         -13.909
REMARK INTER:                 -10.853
REMARK INTRA:                  -3.056
REMARK UNBOUND:                -3.487
REMARK  Name = lig_assembled_90.pdb
REMARK  22 active torsions:
REMARK  status: ('A' for Active; 'I' for Inactive)
REMARK    1  A    between atoms: _2  and  _13
REMARK    2  A    between atoms: _3  and  _15
REMARK    3  A    between atoms: _4  and  _17
REMARK    4  A    between atoms: _8  and  _28
REMARK    5  A    between atoms: _10  and  _11
REMARK    6  A    between atoms: _10  and  _28
REMARK    7  A    between atoms: _13  and  _14
REMARK    8  A    between atoms: _15  and  _16
REMARK    9  A    between atoms: _16  and  _17
REMARK   10  A    between atoms: _16  and  _22
REMARK   11  A    between atoms: _24  and  _44
REMARK   12  A    between atoms: _26  and  _32
REMARK   13  A    between atoms: _27  and  _31
REMARK   14  A    between atoms: _31  and  _32
REMARK   15  A    between atoms: _34  and  _35
REMARK   16  A    between atoms: _36  and  _37
REMARK   17  A    between atoms: _38  and  _40
REMARK   18  A    between atoms: _40  and  _41
REMARK   19  A    between atoms: _40  and  _42
REMARK   20  A    between atoms: _42  and  _43
REMARK   21  A    between atoms: _42  and  _44
REMARK   22  A    between atoms: _45  and  _47
REMARK                            x       y       z     vdW  Elec       q    Type
REMARK                         _______ _______ _______ _____ _____    ______ ____
ROOT
ATOM      1  C   UNL     1      -4.025  13.223  22.395  0.00  0.00    +0.401 C 
ATOM      2  O   UNL     1      -5.111  13.591  22.850  0.00  0.00    -0.226 OA
ATOM      3  N   UNL     1      -2.974  12.896  23.148  0.00  0.00    -0.279 N 
ATOM      4  H   UNL     1      -2.129  12.597  22.682  0.00  0.00    +0.152 HD
ENDROOT
BRANCH   3   5
ATOM      5  C   UNL     1      -2.976  12.947  24.615  0.00  0.00    +0.141 C 
BRANCH   5   6
ATOM      6  C   UNL     1      -3.419  11.622  25.229  0.00  0.00    +0.163 C 
BRANCH   6   7
ATOM      7  O   UNL     1      -2.354  10.661  25.145  0.00  0.00    -0.388 OA
ATOM      8  H   UNL     1      -1.672  10.883  25.784  0.00  0.00    +0.210 HD
ENDBRANCH   6   7
BRANCH   6   9
ATOM      9  C   UNL     1      -3.842  11.849  26.690  0.00  0.00    +0.175 C 
BRANCH   9  10
ATOM     10  C   UNL     1      -3.447  10.673  27.595  0.00  0.00    +0.176 C 
ATOM     11  O   UNL     1      -4.073   9.472  27.067  0.00  0.00    -0.332 OA
ATOM     12  C   UNL     1      -3.721   8.222  27.747  0.00  0.00    +0.277 C 
ATOM     13  C   UNL     1      -4.003   8.334  29.265  0.00  0.00    +0.110 C 
ATOM     14  C   UNL     1      -3.383   9.613  29.866  0.00  0.00    +0.143 C 
ATOM     15  C   UNL     1      -3.813  10.853  29.081  0.00  0.00    +0.133 C 
BRANCH  15  16
ATOM     16  N   UNL     1      -3.148  12.054  29.609  0.00  0.00    -0.308 N 
ATOM     17  H   UNL     1      -2.139  12.090  29.569  0.00  0.00    +0.149 HD
ATOM     18  C   UNL     1      -3.790  13.099  30.138  0.00  0.00    +0.210 C 
ATOM     19  C   UNL     1      -5.325  13.001  30.209  0.00  0.00    +0.109 C 
ATOM     20  O   UNL     1      -3.207  14.098  30.560  0.00  0.00    -0.276 OA
ENDBRANCH  15  16
BRANCH  12  21
ATOM     21  C   UNL     1      -2.235   7.877  27.522  0.00  0.00    +0.414 C 
ATOM     22  O   UNL     1      -1.565   7.395  28.435  0.00  0.00    -0.240 OA
ATOM     23  O   UNL     1      -1.705   8.081  26.429  0.00  0.00    -0.240 OA
ENDBRANCH  12  21
BRANCH  14  24
ATOM     24  O   UNL     1      -3.793   9.753  31.227  0.00  0.00    -0.390 OA
ATOM     25  H   UNL     1      -3.192   9.265  31.795  0.00  0.00    +0.210 HD
ENDBRANCH  14  24
BRANCH  12  26
ATOM     26  O   UNL     1      -4.555   7.166  27.204  0.00  0.00    -0.343 OA
ATOM     27  C   UNL     1      -5.567   7.607  26.264  0.00  0.00    +0.198 C 
ENDBRANCH  12  26
ENDBRANCH   9  10
BRANCH   9  28
ATOM     28  O   UNL     1      -5.263  12.079  26.766  0.00  0.00    -0.387 OA
ATOM     29  H   UNL     1      -5.727  11.240  26.711  0.00  0.00    +0.210 HD
ENDBRANCH   9  28
ENDBRANCH   6   9
ENDBRANCH   5   6
ENDBRANCH   3   5
BRANCH   1  30
ATOM     30  O   UNL     1      -3.862  13.131  20.978  0.00  0.00    -0.444 OA
BRANCH  30  31
ATOM     31  C   UNL     1      -3.975  11.764  20.572  0.00  0.00    +0.292 C 
BRANCH  31  33
ATOM     32  N   UNL     1      -6.051  12.451  19.401  0.00  0.00    -0.131 NA
ATOM     33  C   UNL     1      -4.954  11.632  19.475  0.00  0.00    +0.120 A 
ATOM     34  C   UNL     1      -4.975  10.757  18.413  0.00  0.00    +0.137 A 
ATOM     35  N   UNL     1      -6.095  11.106  17.719  0.00  0.00    -0.242 N 
ATOM     36  N   UNL     1      -6.750  12.112  18.325  0.00  0.00    -0.065 NA
BRANCH  35  37
ATOM     37  C   UNL     1      -6.657  10.473  16.551  0.00  0.00    +0.240 C 
BRANCH  37  38
ATOM     38  C   UNL     1      -7.196  11.494  15.577  0.00  0.00    +0.235 C 
ATOM     39  O   UNL     1      -8.326  11.420  15.096  0.00  0.00    -0.274 OA
ATOM     40  N   UNL     1      -6.351  12.553  15.304  0.00  0.00    -0.311 N 
ATOM     41  H   UNL     1      -5.357  12.443  15.491  0.00  0.00    +0.149 HD
BRANCH  40  42
ATOM     42  C   UNL     1      -6.720  13.558  14.317  0.00  0.00    +0.137 C 
BRANCH  42  43
ATOM     43  C   UNL     1      -5.507  13.980  13.474  0.00  0.00    +0.151 C 
BRANCH  43  44
ATOM     44  O   UNL     1      -5.659  15.358  13.111  0.00  0.00    -0.388 OA
ATOM     45  H   UNL     1      -4.816  15.680  12.730  0.00  0.00    +0.210 HD
ENDBRANCH  43  44
BRANCH  43  46
ATOM     46  C   UNL     1      -4.188  13.741  14.218  0.00  0.00    +0.162 C 
BRANCH  46  47
ATOM     47  N   UNL     1      -3.117  13.311  13.329  0.00  0.00    -0.269 N 
ATOM     48  C   UNL     1      -2.356  14.191  12.591  0.00  0.00    +0.113 A 
ATOM     49  C   UNL     1      -1.495  13.414  11.854  0.00  0.00    +0.137 A 
ATOM     50  N   UNL     1      -1.705  12.084  12.112  0.00  0.00    -0.172 NA
ATOM     51  C   UNL     1      -2.676  12.050  13.011  0.00  0.00    +0.450 A 
ATOM     52  N   UNL     1      -3.183  10.813  13.553  0.00  0.00    +0.120 N 
ATOM     53  O   UNL     1      -4.017  10.884  14.466  0.00  0.00    +0.045 OA
ATOM     54  O   UNL     1      -2.759   9.761  13.059  0.00  0.00    -0.573 OA
ENDBRANCH  46  47
ENDBRANCH  43  46
ENDBRANCH  42  43
ENDBRANCH  40  42
ENDBRANCH  37  38
ENDBRANCH  35  37
ENDBRANCH  31  33
ENDBRANCH  30  31
ENDBRANCH   1  30
TORSDOF 20
