REMARK VINA RESULT:    -4.586      6.490     11.830
REMARK INTER + INTRA:         -12.591
REMARK INTER:                  -9.933
REMARK INTRA:                  -2.658
REMARK UNBOUND:                -3.581
REMARK  Name = lig_assembled_31.pdb
REMARK  20 active torsions:
REMARK  status: ('A' for Active; 'I' for Inactive)
REMARK    1  A    between atoms: _2  and  _11
REMARK    2  A    between atoms: _3  and  _12
REMARK    3  A    between atoms: _4  and  _14
REMARK    4  A    between atoms: _6  and  _24
REMARK    5  A    between atoms: _8  and  _9
REMARK    6  A    between atoms: _8  and  _24
REMARK    7  A    between atoms: _11  and  _12
REMARK    8  A    between atoms: _14  and  _15
REMARK    9  A    between atoms: _20  and  _40
REMARK   10  A    between atoms: _22  and  _28
REMARK   11  A    between atoms: _23  and  _27
REMARK   12  A    between atoms: _27  and  _28
REMARK   13  A    between atoms: _30  and  _31
REMARK   14  A    between atoms: _32  and  _33
REMARK   15  A    between atoms: _34  and  _36
REMARK   16  A    between atoms: _36  and  _37
REMARK   17  A    between atoms: _36  and  _38
REMARK   18  A    between atoms: _38  and  _39
REMARK   19  A    between atoms: _38  and  _40
REMARK   20  A    between atoms: _41  and  _43
REMARK                            x       y       z     vdW  Elec       q    Type
REMARK                         _______ _______ _______ _____ _____    ______ ____
ROOT
ATOM      1  C   UNL     1      -4.995  10.210  19.380  0.00  0.00    +0.401 C 
ATOM      2  O   UNL     1      -3.942  10.394  19.996  0.00  0.00    -0.226 OA
ATOM      3  N   UNL     1      -6.029   9.520  19.861  0.00  0.00    -0.279 N 
ATOM      4  H   UNL     1      -6.854   9.432  19.284  0.00  0.00    +0.152 HD
ENDROOT
BRANCH   1   5
ATOM      5  O   UNL     1      -5.138  10.764  18.070  0.00  0.00    -0.444 OA
BRANCH   5   6
ATOM      6  C   UNL     1      -4.477   9.924  17.120  0.00  0.00    +0.292 C 
BRANCH   6   8
ATOM      7  N   UNL     1      -2.835  10.562  15.381  0.00  0.00    -0.131 NA
ATOM      8  C   UNL     1      -4.081  10.704  15.931  0.00  0.00    +0.120 A 
ATOM      9  C   UNL     1      -4.790  11.633  15.202  0.00  0.00    +0.137 A 
ATOM     10  N   UNL     1      -3.918  12.023  14.231  0.00  0.00    -0.250 N 
ATOM     11  N   UNL     1      -2.746  11.376  14.336  0.00  0.00    -0.065 NA
BRANCH  10  12
ATOM     12  C   UNL     1      -4.125  13.001  13.182  0.00  0.00    +0.164 C 
BRANCH  12  13
ATOM     13  C   UNL     1      -3.422  14.312  13.500  0.00  0.00    +0.129 C 
BRANCH  13  14
ATOM     14  N   UNL     1      -1.967  14.233  13.522  0.00  0.00    -0.298 N 
ATOM     15  H   UNL     1      -1.465  14.212  14.398  0.00  0.00    +0.150 HD
ATOM     16  C   UNL     1      -1.279  14.614  12.401  0.00  0.00    +0.300 C 
ATOM     17  O   UNL     1      -1.837  14.922  11.351  0.00  0.00    -0.253 OA
ATOM     18  N   UNL     1       0.075  14.596  12.539  0.00  0.00    -0.292 N 
ATOM     19  H   UNL     1       0.532  14.383  13.414  0.00  0.00    +0.151 HD
BRANCH  18  20
ATOM     20  C   UNL     1       0.890  14.976  11.409  0.00  0.00    +0.180 C 
BRANCH  20  21
ATOM     21  C   UNL     1       1.373  16.378  11.476  0.00  0.00    +0.122 A 
ATOM     22  O   UNL     1       2.226  16.739  12.482  0.00  0.00    -0.466 OA
ATOM     23  C   UNL     1       2.505  18.061  12.304  0.00  0.00    +0.195 A 
ATOM     24  C   UNL     1       1.843  18.554  11.203  0.00  0.00    +0.041 A 
ATOM     25  C   UNL     1       1.111  17.469  10.668  0.00  0.00    +0.046 A 
ENDBRANCH  20  21
ENDBRANCH  18  20
ENDBRANCH  13  14
ENDBRANCH  12  13
ENDBRANCH  10  12
ENDBRANCH   6   8
ENDBRANCH   5   6
ENDBRANCH   1   5
BRANCH   3  26
ATOM     26  C   UNL     1      -6.038   8.881  21.183  0.00  0.00    +0.141 C 
BRANCH  26  27
ATOM     27  C   UNL     1      -6.948   9.614  22.163  0.00  0.00    +0.163 C 
BRANCH  27  28
ATOM     28  O   UNL     1      -7.277   8.753  23.266  0.00  0.00    -0.388 OA
ATOM     29  H   UNL     1      -6.542   8.729  23.884  0.00  0.00    +0.210 HD
ENDBRANCH  27  28
BRANCH  27  30
ATOM     30  C   UNL     1      -6.250  10.894  22.653  0.00  0.00    +0.175 C 
BRANCH  30  31
ATOM     31  C   UNL     1      -5.079  10.588  23.599  0.00  0.00    +0.176 C 
ATOM     32  O   UNL     1      -5.633  10.230  24.895  0.00  0.00    -0.332 OA
ATOM     33  C   UNL     1      -4.659   9.800  25.903  0.00  0.00    +0.277 C 
ATOM     34  C   UNL     1      -3.557  10.874  26.083  0.00  0.00    +0.110 C 
ATOM     35  C   UNL     1      -2.961  11.310  24.729  0.00  0.00    +0.143 C 
ATOM     36  C   UNL     1      -4.061  11.733  23.755  0.00  0.00    +0.133 C 
BRANCH  36  37
ATOM     37  N   UNL     1      -3.487  12.063  22.441  0.00  0.00    -0.308 N 
ATOM     38  H   UNL     1      -3.040  11.321  21.921  0.00  0.00    +0.149 HD
ATOM     39  C   UNL     1      -3.518  13.280  21.890  0.00  0.00    +0.210 C 
ATOM     40  C   UNL     1      -4.183  14.395  22.719  0.00  0.00    +0.109 C 
ATOM     41  O   UNL     1      -3.042  13.524  20.781  0.00  0.00    -0.276 OA
ENDBRANCH  36  37
BRANCH  33  42
ATOM     42  C   UNL     1      -4.011   8.459  25.502  0.00  0.00    +0.414 C 
ATOM     43  O   UNL     1      -2.898   8.156  25.928  0.00  0.00    -0.240 OA
ATOM     44  O   UNL     1      -4.602   7.680  24.752  0.00  0.00    -0.240 OA
ENDBRANCH  33  42
BRANCH  35  45
ATOM     45  O   UNL     1      -2.062  12.402  24.927  0.00  0.00    -0.390 OA
ATOM     46  H   UNL     1      -1.764  12.410  25.840  0.00  0.00    +0.210 HD
ENDBRANCH  35  45
BRANCH  33  47
ATOM     47  O   UNL     1      -5.358   9.647  27.165  0.00  0.00    -0.343 OA
ATOM     48  C   UNL     1      -5.542  10.873  27.917  0.00  0.00    +0.198 C 
ENDBRANCH  33  47
ENDBRANCH  30  31
BRANCH  30  49
ATOM     49  O   UNL     1      -7.201  11.760  23.304  0.00  0.00    -0.387 OA
ATOM     50  H   UNL     1      -6.733  12.452  23.777  0.00  0.00    +0.210 HD
ENDBRANCH  30  49
ENDBRANCH  27  30
ENDBRANCH  26  27
ENDBRANCH   3  26
TORSDOF 18
