REMARK VINA RESULT:    -5.276      1.395      1.487
REMARK INTER + INTRA:         -12.134
REMARK INTER:                  -9.946
REMARK INTRA:                  -2.188
REMARK UNBOUND:                -2.541
REMARK  Name = lig_assembled_23.pdb
REMARK  18 active torsions:
REMARK  status: ('A' for Active; 'I' for Inactive)
REMARK    1  A    between atoms: _2  and  _10
REMARK    2  A    between atoms: _3  and  _41
REMARK    3  A    between atoms: _5  and  _21
REMARK    4  A    between atoms: _7  and  _8
REMARK    5  A    between atoms: _7  and  _21
REMARK    6  A    between atoms: _12  and  _41
REMARK    7  A    between atoms: _17  and  _37
REMARK    8  A    between atoms: _19  and  _25
REMARK    9  A    between atoms: _20  and  _24
REMARK   10  A    between atoms: _24  and  _25
REMARK   11  A    between atoms: _27  and  _28
REMARK   12  A    between atoms: _29  and  _30
REMARK   13  A    between atoms: _31  and  _33
REMARK   14  A    between atoms: _33  and  _34
REMARK   15  A    between atoms: _33  and  _35
REMARK   16  A    between atoms: _35  and  _36
REMARK   17  A    between atoms: _35  and  _37
REMARK   18  A    between atoms: _38  and  _40
REMARK                            x       y       z     vdW  Elec       q    Type
REMARK                         _______ _______ _______ _____ _____    ______ ____
ROOT
ATOM      1  C   UNL     1      -5.238  13.035  25.134  0.00  0.00    +0.141 C 
ENDROOT
BRANCH   1   4
ATOM      2  C   UNL     1      -5.104  12.516  22.722  0.00  0.00    +0.401 C 
ATOM      3  O   UNL     1      -3.875  12.601  22.675  0.00  0.00    -0.226 OA
ATOM      4  N   UNL     1      -5.824  12.709  23.828  0.00  0.00    -0.279 N 
ATOM      5  H   UNL     1      -6.829  12.626  23.763  0.00  0.00    +0.152 HD
BRANCH   2   6
ATOM      6  O   UNL     1      -5.823  12.196  21.528  0.00  0.00    -0.444 OA
BRANCH   6   7
ATOM      7  C   UNL     1      -5.768  10.785  21.300  0.00  0.00    +0.292 C 
BRANCH   7   9
ATOM      8  N   UNL     1      -5.167   9.224  19.479  0.00  0.00    -0.131 NA
ATOM      9  C   UNL     1      -5.301  10.506  19.930  0.00  0.00    +0.121 A 
ATOM     10  C   UNL     1      -4.943  11.375  18.924  0.00  0.00    +0.143 A 
ATOM     11  N   UNL     1      -4.603  10.570  17.863  0.00  0.00    -0.220 N 
ATOM     12  N   UNL     1      -4.740   9.271  18.225  0.00  0.00    -0.060 NA
BRANCH  11  13
ATOM     13  C   UNL     1      -4.159  10.942  16.567  0.00  0.00    +0.069 A 
ATOM     14  C   UNL     1      -3.692   9.954  15.689  0.00  0.00    +0.056 A 
ATOM     15  C   UNL     1      -3.220  10.323  14.423  0.00  0.00    +0.107 A 
ATOM     16  C   UNL     1      -3.233  11.656  14.013  0.00  0.00    +0.028 A 
ATOM     17  C   UNL     1      -3.713  12.636  14.882  0.00  0.00    +0.004 A 
ATOM     18  C   UNL     1      -4.170  12.284  16.157  0.00  0.00    +0.028 A 
BRANCH  15  19
ATOM     19  S   UNL     1      -2.580   9.072  13.351  0.00  0.00    +0.056 S 
ATOM     20  O   UNL     1      -1.156   8.962  13.563  0.00  0.00    -0.153 OA
ATOM     21  O   UNL     1      -3.464   7.929  13.371  0.00  0.00    -0.153 OA
BRANCH  19  22
ATOM     22  N   UNL     1      -2.789   9.769  11.838  0.00  0.00    -0.204 NA
ATOM     23  H   UNL     1      -3.737  10.133  11.749  0.00  0.00    +0.144 HD
ATOM     24  H   UNL     1      -2.528   9.105  11.108  0.00  0.00    +0.144 HD
ENDBRANCH  19  22
ENDBRANCH  15  19
ENDBRANCH  11  13
ENDBRANCH   7   9
ENDBRANCH   6   7
ENDBRANCH   2   6
ENDBRANCH   1   4
BRANCH   1  25
ATOM     25  C   UNL     1      -4.930  11.782  25.947  0.00  0.00    +0.163 C 
BRANCH  25  26
ATOM     26  O   UNL     1      -3.825  11.074  25.361  0.00  0.00    -0.388 OA
ATOM     27  H   UNL     1      -4.156  10.424  24.737  0.00  0.00    +0.210 HD
ENDBRANCH  25  26
BRANCH  25  28
ATOM     28  C   UNL     1      -4.622  12.176  27.402  0.00  0.00    +0.175 C 
BRANCH  28  29
ATOM     29  C   UNL     1      -3.787  11.110  28.126  0.00  0.00    +0.176 C 
ATOM     30  O   UNL     1      -4.338   9.807  27.790  0.00  0.00    -0.332 OA
ATOM     31  C   UNL     1      -3.600   8.652  28.310  0.00  0.00    +0.277 C 
ATOM     32  C   UNL     1      -3.427   8.768  29.844  0.00  0.00    +0.110 C 
ATOM     33  C   UNL     1      -2.872  10.149  30.253  0.00  0.00    +0.143 C 
ATOM     34  C   UNL     1      -3.714  11.276  29.655  0.00  0.00    +0.133 C 
BRANCH  34  35
ATOM     35  N   UNL     1      -3.126  12.586  29.979  0.00  0.00    -0.308 N 
ATOM     36  H   UNL     1      -2.232  12.816  29.569  0.00  0.00    +0.149 HD
ATOM     37  C   UNL     1      -3.697  13.490  30.779  0.00  0.00    +0.210 C 
ATOM     38  C   UNL     1      -5.047  13.099  31.409  0.00  0.00    +0.109 C 
ATOM     39  O   UNL     1      -3.188  14.585  31.021  0.00  0.00    -0.276 OA
ENDBRANCH  34  35
BRANCH  31  40
ATOM     40  C   UNL     1      -2.213   8.544  27.642  0.00  0.00    +0.414 C 
ATOM     41  O   UNL     1      -1.233   8.197  28.300  0.00  0.00    -0.240 OA
ATOM     42  O   UNL     1      -2.075   8.802  26.445  0.00  0.00    -0.240 OA
ENDBRANCH  31  40
BRANCH  33  43
ATOM     43  O   UNL     1      -2.872  10.266  31.676  0.00  0.00    -0.390 OA
ATOM     44  H   UNL     1      -2.485  11.108  31.928  0.00  0.00    +0.210 HD
ENDBRANCH  33  43
BRANCH  31  45
ATOM     45  O   UNL     1      -4.374   7.459  28.025  0.00  0.00    -0.343 OA
ATOM     46  C   UNL     1      -5.590   7.683  27.268  0.00  0.00    +0.198 C 
ENDBRANCH  31  45
ENDBRANCH  28  29
BRANCH  28  47
ATOM     47  O   UNL     1      -5.847  12.420  28.121  0.00  0.00    -0.387 OA
ATOM     48  H   UNL     1      -6.436  11.669  28.015  0.00  0.00    +0.210 HD
ENDBRANCH  28  47
ENDBRANCH  25  28
ENDBRANCH   1  25
TORSDOF 16
