REMARK VINA RESULT:    -3.002      2.391      8.110
REMARK INTER + INTRA:         -10.434
REMARK INTER:                  -6.124
REMARK INTRA:                  -4.310
REMARK UNBOUND:                -4.711
REMARK  Name = lig_assembled_62.pdb
REMARK  20 active torsions:
REMARK  status: ('A' for Active; 'I' for Inactive)
REMARK    1  A    between atoms: _2  and  _10
REMARK    2  A    between atoms: _5  and  _19
REMARK    3  A    between atoms: _6  and  _10
REMARK    4  A    between atoms: _7  and  _8
REMARK    5  A    between atoms: _7  and  _19
REMARK    6  A    between atoms: _10  and  _11
REMARK    7  A    between atoms: _11  and  _14
REMARK    8  A    between atoms: _12  and  _14
REMARK    9  A    between atoms: _15  and  _35
REMARK   10  A    between atoms: _17  and  _23
REMARK   11  A    between atoms: _18  and  _22
REMARK   12  A    between atoms: _22  and  _23
REMARK   13  A    between atoms: _25  and  _26
REMARK   14  A    between atoms: _27  and  _28
REMARK   15  A    between atoms: _29  and  _31
REMARK   16  A    between atoms: _31  and  _32
REMARK   17  A    between atoms: _31  and  _33
REMARK   18  A    between atoms: _33  and  _34
REMARK   19  A    between atoms: _33  and  _35
REMARK   20  A    between atoms: _36  and  _38
REMARK                            x       y       z     vdW  Elec       q    Type
REMARK                         _______ _______ _______ _____ _____    ______ ____
ROOT
ATOM      1  C   UNL     1      -3.300  10.734  25.298  0.00  0.00    +0.163 C 
ENDROOT
BRANCH   1   2
ATOM      2  O   UNL     1      -3.008  10.083  24.050  0.00  0.00    -0.388 OA
ATOM      3  H   UNL     1      -2.189   9.590  24.130  0.00  0.00    +0.210 HD
ENDBRANCH   1   2
BRANCH   1   4
ATOM      4  C   UNL     1      -2.478  10.119  26.444  0.00  0.00    +0.175 C 
BRANCH   4   5
ATOM      5  C   UNL     1      -3.279   9.072  27.232  0.00  0.00    +0.176 C 
ATOM      6  O   UNL     1      -3.441   7.902  26.384  0.00  0.00    -0.332 OA
ATOM      7  C   UNL     1      -4.095   6.750  27.011  0.00  0.00    +0.277 C 
ATOM      8  C   UNL     1      -5.466   7.161  27.601  0.00  0.00    +0.110 C 
ATOM      9  C   UNL     1      -5.351   8.421  28.485  0.00  0.00    +0.143 C 
ATOM     10  C   UNL     1      -4.652   9.556  27.735  0.00  0.00    +0.133 C 
BRANCH  10  11
ATOM     11  N   UNL     1      -4.470  10.720  28.616  0.00  0.00    -0.308 N 
ATOM     12  H   UNL     1      -3.822  10.633  29.385  0.00  0.00    +0.149 HD
ATOM     13  C   UNL     1      -5.106  11.885  28.464  0.00  0.00    +0.210 C 
ATOM     14  C   UNL     1      -6.107  11.978  27.297  0.00  0.00    +0.109 C 
ATOM     15  O   UNL     1      -4.923  12.849  29.209  0.00  0.00    -0.276 OA
ENDBRANCH  10  11
BRANCH   7  16
ATOM     16  C   UNL     1      -3.210   6.159  28.128  0.00  0.00    +0.414 C 
ATOM     17  O   UNL     1      -3.696   5.410  28.974  0.00  0.00    -0.240 OA
ATOM     18  O   UNL     1      -2.010   6.431  28.182  0.00  0.00    -0.240 OA
ENDBRANCH   7  16
BRANCH   7  19
ATOM     19  O   UNL     1      -4.321   5.749  25.985  0.00  0.00    -0.343 OA
ATOM     20  C   UNL     1      -5.641   5.150  25.994  0.00  0.00    +0.198 C 
ENDBRANCH   7  19
BRANCH   9  21
ATOM     21  O   UNL     1      -6.653   8.851  28.883  0.00  0.00    -0.390 OA
ATOM     22  H   UNL     1      -7.164   8.095  29.179  0.00  0.00    +0.210 HD
ENDBRANCH   9  21
ENDBRANCH   4   5
BRANCH   4  23
ATOM     23  O   UNL     1      -2.009  11.155  27.330  0.00  0.00    -0.387 OA
ATOM     24  H   UNL     1      -2.548  11.166  28.124  0.00  0.00    +0.210 HD
ENDBRANCH   4  23
ENDBRANCH   1   4
BRANCH   1  25
ATOM     25  C   UNL     1      -2.992  12.225  25.193  0.00  0.00    +0.141 C 
BRANCH  25  28
ATOM     26  C   UNL     1      -4.061  13.535  23.392  0.00  0.00    +0.401 C 
ATOM     27  O   UNL     1      -4.963  13.968  24.113  0.00  0.00    -0.226 OA
ATOM     28  N   UNL     1      -3.101  12.710  23.812  0.00  0.00    -0.279 N 
ATOM     29  H   UNL     1      -2.410  12.402  23.142  0.00  0.00    +0.152 HD
BRANCH  26  30
ATOM     30  O   UNL     1      -4.025  13.925  22.017  0.00  0.00    -0.444 OA
BRANCH  30  31
ATOM     31  C   UNL     1      -5.157  13.380  21.335  0.00  0.00    +0.292 C 
BRANCH  31  33
ATOM     32  N   UNL     1      -4.050  11.171  21.169  0.00  0.00    -0.131 NA
ATOM     33  C   UNL     1      -5.167  11.909  21.452  0.00  0.00    +0.120 A 
ATOM     34  C   UNL     1      -6.183  11.059  21.829  0.00  0.00    +0.138 A 
ATOM     35  N   UNL     1      -5.627   9.815  21.741  0.00  0.00    -0.237 N 
ATOM     36  N   UNL     1      -4.340   9.890  21.351  0.00  0.00    -0.065 NA
BRANCH  35  37
ATOM     37  C   UNL     1      -6.212   8.518  22.034  0.00  0.00    +0.219 C 
BRANCH  37  38
ATOM     38  C   UNL     1      -5.808   8.059  23.427  0.00  0.00    +0.237 C 
ATOM     39  O   UNL     1      -6.587   7.944  24.370  0.00  0.00    -0.274 OA
ATOM     40  N   UNL     1      -4.496   7.703  23.585  0.00  0.00    -0.328 N 
ATOM     41  H   UNL     1      -3.822   7.687  22.831  0.00  0.00    +0.145 HD
ATOM     42  H   UNL     1      -4.202   7.385  24.501  0.00  0.00    +0.145 HD
ENDBRANCH  37  38
BRANCH  37  43
ATOM     43  C   UNL     1      -5.803   7.491  20.981  0.00  0.00    +0.195 C 
BRANCH  43  44
ATOM     44  O   UNL     1      -6.807   7.434  19.958  0.00  0.00    -0.380 OA
ATOM     45  C   UNL     1      -8.056   6.987  20.470  0.00  0.00    +0.194 C 
ENDBRANCH  43  44
ENDBRANCH  37  43
ENDBRANCH  35  37
ENDBRANCH  31  33
ENDBRANCH  30  31
ENDBRANCH  26  30
ENDBRANCH  25  28
ENDBRANCH   1  25
TORSDOF 17
