REMARK VINA RESULT:    -4.702      2.592      6.796
REMARK INTER + INTRA:         -11.262
REMARK INTER:                  -7.387
REMARK INTRA:                  -3.874
REMARK UNBOUND:                -2.848
REMARK  Name = lig_assembled_63.pdb
REMARK  17 active torsions:
REMARK  status: ('A' for Active; 'I' for Inactive)
REMARK    1  A    between atoms: _2  and  _11
REMARK    2  A    between atoms: _6  and  _20
REMARK    3  A    between atoms: _7  and  _15
REMARK    4  A    between atoms: _8  and  _9
REMARK    5  A    between atoms: _8  and  _20
REMARK    6  A    between atoms: _16  and  _36
REMARK    7  A    between atoms: _18  and  _24
REMARK    8  A    between atoms: _19  and  _23
REMARK    9  A    between atoms: _23  and  _24
REMARK   10  A    between atoms: _26  and  _27
REMARK   11  A    between atoms: _28  and  _29
REMARK   12  A    between atoms: _30  and  _32
REMARK   13  A    between atoms: _32  and  _33
REMARK   14  A    between atoms: _32  and  _34
REMARK   15  A    between atoms: _34  and  _35
REMARK   16  A    between atoms: _34  and  _36
REMARK   17  A    between atoms: _37  and  _39
REMARK                            x       y       z     vdW  Elec       q    Type
REMARK                         _______ _______ _______ _____ _____    ______ ____
ROOT
ATOM      1  C   UNL     1      -1.891   9.201  28.153  0.00  0.00    +0.163 C 
ENDROOT
BRANCH   1   2
ATOM      2  O   UNL     1      -1.463   9.562  26.829  0.00  0.00    -0.388 OA
ATOM      3  H   UNL     1      -0.508   9.664  26.818  0.00  0.00    +0.210 HD
ENDBRANCH   1   2
BRANCH   1   4
ATOM      4  C   UNL     1      -2.038   7.686  28.258  0.00  0.00    +0.141 C 
BRANCH   4   7
ATOM      5  C   UNL     1      -2.743   6.583  26.163  0.00  0.00    +0.401 C 
ATOM      6  O   UNL     1      -1.593   6.428  25.747  0.00  0.00    -0.226 OA
ATOM      7  N   UNL     1      -3.044   7.167  27.324  0.00  0.00    -0.279 N 
ATOM      8  H   UNL     1      -4.018   7.257  27.574  0.00  0.00    +0.152 HD
BRANCH   5   9
ATOM      9  O   UNL     1      -3.838   6.121  25.367  0.00  0.00    -0.444 OA
BRANCH   9  10
ATOM     10  C   UNL     1      -3.795   6.751  24.084  0.00  0.00    +0.292 C 
BRANCH  10  12
ATOM     11  N   UNL     1      -5.302   8.474  25.016  0.00  0.00    -0.131 NA
ATOM     12  C   UNL     1      -4.279   8.141  24.176  0.00  0.00    +0.121 A 
ATOM     13  C   UNL     1      -3.868   9.268  23.505  0.00  0.00    +0.145 A 
ATOM     14  N   UNL     1      -4.706  10.272  23.947  0.00  0.00    -0.200 N 
ATOM     15  N   UNL     1      -5.548   9.769  24.876  0.00  0.00    -0.059 NA
BRANCH  14  16
ATOM     16  C   UNL     1      -4.742  11.617  23.473  0.00  0.00    +0.173 A 
ATOM     17  C   UNL     1      -3.952  12.627  24.027  0.00  0.00    +0.096 A 
ATOM     18  C   UNL     1      -4.138  13.936  23.549  0.00  0.00    +0.024 A 
ATOM     19  C   UNL     1      -5.061  14.196  22.540  0.00  0.00    +0.021 A 
ATOM     20  C   UNL     1      -5.772  13.132  22.022  0.00  0.00    +0.113 A 
ATOM     21  N   UNL     1      -5.638  11.864  22.464  0.00  0.00    -0.235 NA
BRANCH  17  22
ATOM     22  C   UNL     1      -2.948  12.442  25.033  0.00  0.00    +0.103 C 
ATOM     23  N   UNL     1      -2.182  12.199  25.871  0.00  0.00    -0.191 NA
ENDBRANCH  17  22
ENDBRANCH  14  16
ENDBRANCH  10  12
ENDBRANCH   9  10
ENDBRANCH   5   9
ENDBRANCH   4   7
ENDBRANCH   1   4
BRANCH   1  24
ATOM     24  C   UNL     1      -3.231   9.872  28.500  0.00  0.00    +0.175 C 
BRANCH  24  25
ATOM     25  C   UNL     1      -3.994   9.109  29.593  0.00  0.00    +0.176 C 
ATOM     26  O   UNL     1      -5.212   8.579  29.001  0.00  0.00    -0.332 OA
ATOM     27  C   UNL     1      -6.022   7.726  29.874  0.00  0.00    +0.277 C 
ATOM     28  C   UNL     1      -6.360   8.465  31.192  0.00  0.00    +0.110 C 
ATOM     29  C   UNL     1      -5.099   9.073  31.843  0.00  0.00    +0.143 C 
ATOM     30  C   UNL     1      -4.330   9.940  30.845  0.00  0.00    +0.133 C 
BRANCH  30  31
ATOM     31  N   UNL     1      -3.087  10.442  31.450  0.00  0.00    -0.308 N 
ATOM     32  H   UNL     1      -2.372   9.769  31.688  0.00  0.00    +0.149 HD
ATOM     33  C   UNL     1      -2.841  11.730  31.705  0.00  0.00    +0.210 C 
ATOM     34  C   UNL     1      -3.960  12.729  31.354  0.00  0.00    +0.109 C 
ATOM     35  O   UNL     1      -1.784  12.124  32.199  0.00  0.00    -0.276 OA
ENDBRANCH  30  31
BRANCH  27  36
ATOM     36  C   UNL     1      -5.281   6.411  30.196  0.00  0.00    +0.414 C 
ATOM     37  O   UNL     1      -4.768   5.752  29.293  0.00  0.00    -0.240 OA
ATOM     38  O   UNL     1      -5.195   6.011  31.358  0.00  0.00    -0.240 OA
ENDBRANCH  27  36
BRANCH  27  39
ATOM     39  O   UNL     1      -7.265   7.429  29.186  0.00  0.00    -0.343 OA
ATOM     40  C   UNL     1      -7.374   7.990  27.853  0.00  0.00    +0.198 C 
ENDBRANCH  27  39
BRANCH  29  41
ATOM     41  O   UNL     1      -5.474   9.870  32.967  0.00  0.00    -0.390 OA
ATOM     42  H   UNL     1      -6.424  10.006  32.961  0.00  0.00    +0.210 HD
ENDBRANCH  29  41
ENDBRANCH  24  25
BRANCH  24  43
ATOM     43  O   UNL     1      -4.046   9.995  27.318  0.00  0.00    -0.387 OA
ATOM     44  H   UNL     1      -3.495   9.901  26.537  0.00  0.00    +0.210 HD
ENDBRANCH  24  43
ENDBRANCH   1  24
TORSDOF 15
