REMARK VINA RESULT:    -5.648      3.504      8.677
REMARK INTER + INTRA:         -15.213
REMARK INTER:                 -10.878
REMARK INTRA:                  -4.336
REMARK UNBOUND:                -3.788
REMARK  Name = lig_assembled_81.pdb
REMARK  22 active torsions:
REMARK  status: ('A' for Active; 'I' for Inactive)
REMARK    1  A    between atoms: _2  and  _12
REMARK    2  A    between atoms: _7  and  _30
REMARK    3  A    between atoms: _8  and  _24
REMARK    4  A    between atoms: _9  and  _10
REMARK    5  A    between atoms: _9  and  _30
REMARK    6  A    between atoms: _14  and  _15
REMARK    7  A    between atoms: _21  and  _22
REMARK    8  A    between atoms: _22  and  _23
REMARK    9  A    between atoms: _23  and  _25
REMARK   10  A    between atoms: _24  and  _25
REMARK   11  A    between atoms: _26  and  _46
REMARK   12  A    between atoms: _28  and  _34
REMARK   13  A    between atoms: _29  and  _33
REMARK   14  A    between atoms: _33  and  _34
REMARK   15  A    between atoms: _36  and  _37
REMARK   16  A    between atoms: _38  and  _39
REMARK   17  A    between atoms: _40  and  _42
REMARK   18  A    between atoms: _42  and  _43
REMARK   19  A    between atoms: _42  and  _44
REMARK   20  A    between atoms: _44  and  _45
REMARK   21  A    between atoms: _44  and  _46
REMARK   22  A    between atoms: _47  and  _49
REMARK                            x       y       z     vdW  Elec       q    Type
REMARK                         _______ _______ _______ _____ _____    ______ ____
ROOT
ATOM      1  C   UNL     1      -2.028   8.042  28.110  0.00  0.00    +0.401 C 
ATOM      2  O   UNL     1      -1.748   6.850  28.254  0.00  0.00    -0.226 OA
ATOM      3  N   UNL     1      -2.493   8.822  29.087  0.00  0.00    -0.279 N 
ATOM      4  H   UNL     1      -2.684   9.791  28.874  0.00  0.00    +0.152 HD
ENDROOT
BRANCH   1   5
ATOM      5  O   UNL     1      -1.847   8.648  26.828  0.00  0.00    -0.444 OA
BRANCH   5   6
ATOM      6  C   UNL     1      -1.696  10.062  26.984  0.00  0.00    +0.289 C 
BRANCH   6   8
ATOM      7  N   UNL     1      -3.319  10.101  25.146  0.00  0.00    -0.130 NA
ATOM      8  C   UNL     1      -2.665  10.778  26.131  0.00  0.00    +0.100 C 
ATOM      9  C   UNL     1      -3.061  12.102  26.094  0.00  0.00    +0.124 C 
ATOM     10  N   UNL     1      -4.075  12.140  25.146  0.00  0.00    -0.187 N 
ATOM     11  N   UNL     1      -4.060  10.969  24.479  0.00  0.00    -0.010 NA
BRANCH  10  12
ATOM     12  C   UNL     1      -4.874  13.264  24.749  0.00  0.00    +0.150 A 
ATOM     13  C   UNL     1      -4.602  14.126  23.658  0.00  0.00    +0.022 A 
ATOM     14  C   UNL     1      -5.521  15.203  23.551  0.00  0.00    +0.081 A 
ATOM     15  N   UNL     1      -6.505  15.397  24.471  0.00  0.00    -0.214 NA
ATOM     16  C   UNL     1      -6.642  14.537  25.466  0.00  0.00    +0.215 A 
ATOM     17  N   UNL     1      -7.583  14.801  26.432  0.00  0.00    -0.327 N 
ATOM     18  H   UNL     1      -8.298  15.422  26.087  0.00  0.00    +0.145 HD
ATOM     19  H   UNL     1      -7.858  13.965  26.926  0.00  0.00    +0.145 HD
ATOM     20  N   UNL     1      -5.932  13.432  25.589  0.00  0.00    -0.198 NA
BRANCH  14  21
ATOM     21  C   UNL     1      -5.571  16.284  22.494  0.00  0.00    +0.001 A 
ATOM     22  C   UNL     1      -4.543  17.208  22.233  0.00  0.00    +0.010 A 
ATOM     23  C   UNL     1      -4.644  18.182  21.226  0.00  0.00    +0.001 A 
ATOM     24  C   UNL     1      -5.752  18.232  20.401  0.00  0.00    +0.000 A 
ATOM     25  C   UNL     1      -6.773  17.302  20.584  0.00  0.00    +0.001 A 
ATOM     26  C   UNL     1      -6.682  16.360  21.619  0.00  0.00    +0.010 A 
ENDBRANCH  14  21
BRANCH  13  27
ATOM     27  C   UNL     1      -3.544  13.974  22.560  0.00  0.00    +0.069 C 
BRANCH  27  28
ATOM     28  C   UNL     1      -3.776  13.067  21.367  0.00  0.00    +0.164 C 
BRANCH  28  29
ATOM     29  O   UNL     1      -3.044  11.835  21.353  0.00  0.00    -0.380 OA
BRANCH  29  30
ATOM     30  C   UNL     1      -3.945  10.837  20.834  0.00  0.00    +0.156 C 
ATOM     31  C   UNL     1      -4.724  11.350  19.645  0.00  0.00    +0.034 C 
ENDBRANCH  29  30
ENDBRANCH  28  29
ENDBRANCH  27  28
ENDBRANCH  13  27
ENDBRANCH  10  12
ENDBRANCH   6   8
ENDBRANCH   5   6
ENDBRANCH   1   5
BRANCH   3  32
ATOM     32  C   UNL     1      -2.742   8.352  30.455  0.00  0.00    +0.141 C 
BRANCH  32  33
ATOM     33  C   UNL     1      -3.201   9.483  31.370  0.00  0.00    +0.163 C 
BRANCH  33  34
ATOM     34  O   UNL     1      -2.210  10.523  31.401  0.00  0.00    -0.388 OA
ATOM     35  H   UNL     1      -1.333  10.131  31.393  0.00  0.00    +0.210 HD
ENDBRANCH  33  34
BRANCH  33  36
ATOM     36  C   UNL     1      -4.553  10.026  30.878  0.00  0.00    +0.175 C 
BRANCH  36  37
ATOM     37  C   UNL     1      -4.521  11.546  30.661  0.00  0.00    +0.176 C 
ATOM     38  O   UNL     1      -4.582  12.185  31.966  0.00  0.00    -0.332 OA
ATOM     39  C   UNL     1      -4.456  13.645  31.964  0.00  0.00    +0.277 C 
ATOM     40  C   UNL     1      -5.509  14.278  31.021  0.00  0.00    +0.110 C 
ATOM     41  C   UNL     1      -5.504  13.609  29.630  0.00  0.00    +0.143 C 
ATOM     42  C   UNL     1      -5.637  12.091  29.751  0.00  0.00    +0.133 C 
BRANCH  42  43
ATOM     43  N   UNL     1      -5.543  11.458  28.426  0.00  0.00    -0.308 N 
ATOM     44  H   UNL     1      -4.712  11.632  27.878  0.00  0.00    +0.149 HD
ATOM     45  C   UNL     1      -6.485  10.671  27.899  0.00  0.00    +0.210 C 
ATOM     46  C   UNL     1      -7.751  10.447  28.747  0.00  0.00    +0.109 C 
ATOM     47  O   UNL     1      -6.372  10.142  26.793  0.00  0.00    -0.276 OA
ENDBRANCH  42  43
BRANCH  39  48
ATOM     48  C   UNL     1      -3.042  14.071  31.516  0.00  0.00    +0.414 C 
ATOM     49  O   UNL     1      -2.886  15.084  30.836  0.00  0.00    -0.240 OA
ATOM     50  O   UNL     1      -2.059  13.402  31.836  0.00  0.00    -0.240 OA
ENDBRANCH  39  48
BRANCH  39  51
ATOM     51  O   UNL     1      -4.705  14.120  33.312  0.00  0.00    -0.343 OA
ATOM     52  C   UNL     1      -5.690  15.179  33.416  0.00  0.00    +0.198 C 
ENDBRANCH  39  51
BRANCH  41  53
ATOM     53  O   UNL     1      -6.585  14.116  28.848  0.00  0.00    -0.390 OA
ATOM     54  H   UNL     1      -6.610  13.662  28.002  0.00  0.00    +0.210 HD
ENDBRANCH  41  53
ENDBRANCH  36  37
BRANCH  36  55
ATOM     55  O   UNL     1      -5.597   9.679  31.810  0.00  0.00    -0.387 OA
ATOM     56  H   UNL     1      -5.345   9.962  32.692  0.00  0.00    +0.210 HD
ENDBRANCH  36  55
ENDBRANCH  33  36
ENDBRANCH  32  33
ENDBRANCH   3  32
TORSDOF 19
