REMARK VINA RESULT:    -4.100      3.688      7.699
REMARK INTER + INTRA:         -10.949
REMARK INTER:                  -8.258
REMARK INTRA:                  -2.691
REMARK UNBOUND:                -2.894
REMARK  Name = lig_assembled_17.pdb
REMARK  22 active torsions:
REMARK  status: ('A' for Active; 'I' for Inactive)
REMARK    1  A    between atoms: _2  and  _10
REMARK    2  A    between atoms: _3  and  _11
REMARK    3  A    between atoms: _3  and  _12
REMARK    4  A    between atoms: _3  and  _14
REMARK    5  A    between atoms: _5  and  _19
REMARK    6  A    between atoms: _6  and  _14
REMARK    7  A    between atoms: _7  and  _8
REMARK    8  A    between atoms: _7  and  _19
REMARK    9  A    between atoms: _10  and  _11
REMARK   10  A    between atoms: _12  and  _13
REMARK   11  A    between atoms: _15  and  _35
REMARK   12  A    between atoms: _17  and  _23
REMARK   13  A    between atoms: _18  and  _22
REMARK   14  A    between atoms: _22  and  _23
REMARK   15  A    between atoms: _25  and  _26
REMARK   16  A    between atoms: _27  and  _28
REMARK   17  A    between atoms: _29  and  _31
REMARK   18  A    between atoms: _31  and  _32
REMARK   19  A    between atoms: _31  and  _33
REMARK   20  A    between atoms: _33  and  _34
REMARK   21  A    between atoms: _33  and  _35
REMARK   22  A    between atoms: _36  and  _38
REMARK                            x       y       z     vdW  Elec       q    Type
REMARK                         _______ _______ _______ _____ _____    ______ ____
ROOT
ATOM      1  C   UNL     1      -4.333  10.800  25.601  0.00  0.00    +0.163 C 
ENDROOT
BRANCH   1   2
ATOM      2  O   UNL     1      -4.992  10.235  24.456  0.00  0.00    -0.388 OA
ATOM      3  H   UNL     1      -5.917  10.083  24.661  0.00  0.00    +0.210 HD
ENDBRANCH   1   2
BRANCH   1   4
ATOM      4  C   UNL     1      -2.900  10.256  25.736  0.00  0.00    +0.175 C 
BRANCH   4   5
ATOM      5  C   UNL     1      -2.856   8.930  26.510  0.00  0.00    +0.176 C 
ATOM      6  O   UNL     1      -3.328   7.878  25.624  0.00  0.00    -0.332 OA
ATOM      7  C   UNL     1      -3.256   6.516  26.161  0.00  0.00    +0.277 C 
ATOM      8  C   UNL     1      -3.997   6.430  27.518  0.00  0.00    +0.110 C 
ATOM      9  C   UNL     1      -3.551   7.548  28.483  0.00  0.00    +0.143 C 
ATOM     10  C   UNL     1      -3.664   8.922  27.821  0.00  0.00    +0.133 C 
BRANCH  10  11
ATOM     11  N   UNL     1      -3.155   9.970  28.719  0.00  0.00    -0.308 N 
ATOM     12  H   UNL     1      -2.160   9.999  28.894  0.00  0.00    +0.149 HD
ATOM     13  C   UNL     1      -3.921  10.886  29.318  0.00  0.00    +0.210 C 
ATOM     14  C   UNL     1      -5.436  10.799  29.051  0.00  0.00    +0.109 C 
ATOM     15  O   UNL     1      -3.465  11.762  30.054  0.00  0.00    -0.276 OA
ENDBRANCH  10  11
BRANCH   7  16
ATOM     16  C   UNL     1      -1.788   6.079  26.347  0.00  0.00    +0.414 C 
ATOM     17  O   UNL     1      -0.983   6.201  25.425  0.00  0.00    -0.240 OA
ATOM     18  O   UNL     1      -1.409   5.605  27.419  0.00  0.00    -0.240 OA
ENDBRANCH   7  16
BRANCH   9  19
ATOM     19  O   UNL     1      -4.364   7.524  29.657  0.00  0.00    -0.390 OA
ATOM     20  H   UNL     1      -4.087   6.800  30.224  0.00  0.00    +0.210 HD
ENDBRANCH   9  19
BRANCH   7  21
ATOM     21  O   UNL     1      -3.914   5.628  25.222  0.00  0.00    -0.343 OA
ATOM     22  C   UNL     1      -4.354   6.255  23.991  0.00  0.00    +0.198 C 
ENDBRANCH   7  21
ENDBRANCH   4   5
BRANCH   4  23
ATOM     23  O   UNL     1      -2.056  11.233  26.376  0.00  0.00    -0.387 OA
ATOM     24  H   UNL     1      -2.555  11.693  27.054  0.00  0.00    +0.210 HD
ENDBRANCH   4  23
ENDBRANCH   1   4
BRANCH   1  25
ATOM     25  C   UNL     1      -4.292  12.320  25.483  0.00  0.00    +0.141 C 
BRANCH  25  28
ATOM     26  C   UNL     1      -4.532  13.071  23.141  0.00  0.00    +0.401 C 
ATOM     27  O   UNL     1      -5.765  13.023  23.154  0.00  0.00    -0.226 OA
ATOM     28  N   UNL     1      -3.764  12.753  24.184  0.00  0.00    -0.279 N 
ATOM     29  H   UNL     1      -2.761  12.815  24.073  0.00  0.00    +0.152 HD
BRANCH  26  30
ATOM     30  O   UNL     1      -3.866  13.485  21.946  0.00  0.00    -0.444 OA
BRANCH  30  31
ATOM     31  C   UNL     1      -2.982  12.449  21.509  0.00  0.00    +0.292 C 
BRANCH  31  33
ATOM     32  N   UNL     1      -3.873  10.149  21.350  0.00  0.00    -0.131 NA
ATOM     33  C   UNL     1      -3.738  11.398  20.804  0.00  0.00    +0.120 A 
ATOM     34  C   UNL     1      -4.404  11.440  19.599  0.00  0.00    +0.137 A 
ATOM     35  N   UNL     1      -4.938  10.192  19.481  0.00  0.00    -0.250 N 
ATOM     36  N   UNL     1      -4.609   9.415  20.528  0.00  0.00    -0.065 NA
BRANCH  35  37
ATOM     37  C   UNL     1      -5.801   9.675  18.438  0.00  0.00    +0.160 C 
BRANCH  37  38
ATOM     38  C   UNL     1      -4.975   9.253  17.215  0.00  0.00    +0.107 C 
BRANCH  38  39
ATOM     39  N   UNL     1      -5.026  10.167  16.048  0.00  0.00    -0.301 NA
BRANCH  39  40
ATOM     40  C   UNL     1      -3.834  11.025  15.926  0.00  0.00    +0.081 C 
ATOM     41  C   UNL     1      -4.061  12.529  16.058  0.00  0.00    +0.020 C 
ENDBRANCH  39  40
BRANCH  39  42
ATOM     42  C   UNL     1      -5.304   9.373  14.833  0.00  0.00    +0.081 C 
ATOM     43  C   UNL     1      -4.294   9.553  13.704  0.00  0.00    +0.020 C 
ENDBRANCH  39  42
ENDBRANCH  38  39
ENDBRANCH  37  38
ENDBRANCH  35  37
ENDBRANCH  31  33
ENDBRANCH  30  31
ENDBRANCH  26  30
ENDBRANCH  25  28
ENDBRANCH   1  25
TORSDOF 18
