REMARK VINA RESULT:    -5.050      2.341      2.724
REMARK INTER + INTRA:         -11.723
REMARK INTER:                  -9.202
REMARK INTRA:                  -2.521
REMARK UNBOUND:                -2.541
REMARK  Name = lig_assembled_23.pdb
REMARK  18 active torsions:
REMARK  status: ('A' for Active; 'I' for Inactive)
REMARK    1  A    between atoms: _2  and  _10
REMARK    2  A    between atoms: _3  and  _41
REMARK    3  A    between atoms: _5  and  _21
REMARK    4  A    between atoms: _7  and  _8
REMARK    5  A    between atoms: _7  and  _21
REMARK    6  A    between atoms: _12  and  _41
REMARK    7  A    between atoms: _17  and  _37
REMARK    8  A    between atoms: _19  and  _25
REMARK    9  A    between atoms: _20  and  _24
REMARK   10  A    between atoms: _24  and  _25
REMARK   11  A    between atoms: _27  and  _28
REMARK   12  A    between atoms: _29  and  _30
REMARK   13  A    between atoms: _31  and  _33
REMARK   14  A    between atoms: _33  and  _34
REMARK   15  A    between atoms: _33  and  _35
REMARK   16  A    between atoms: _35  and  _36
REMARK   17  A    between atoms: _35  and  _37
REMARK   18  A    between atoms: _38  and  _40
REMARK                            x       y       z     vdW  Elec       q    Type
REMARK                         _______ _______ _______ _____ _____    ______ ____
ROOT
ATOM      1  C   UNL     1      -3.407  13.170  23.950  0.00  0.00    +0.141 C 
ENDROOT
BRANCH   1   4
ATOM      2  C   UNL     1      -4.066  12.694  21.617  0.00  0.00    +0.401 C 
ATOM      3  O   UNL     1      -2.929  12.375  21.262  0.00  0.00    -0.226 OA
ATOM      4  N   UNL     1      -4.379  13.085  22.853  0.00  0.00    -0.279 N 
ATOM      5  H   UNL     1      -5.338  13.336  23.045  0.00  0.00    +0.152 HD
BRANCH   2   6
ATOM      6  O   UNL     1      -5.128  12.654  20.661  0.00  0.00    -0.444 OA
BRANCH   6   7
ATOM      7  C   UNL     1      -5.831  11.414  20.778  0.00  0.00    +0.292 C 
BRANCH   7   9
ATOM      8  N   UNL     1      -5.457   9.132  19.903  0.00  0.00    -0.131 NA
ATOM      9  C   UNL     1      -5.407  10.484  19.717  0.00  0.00    +0.121 A 
ATOM     10  C   UNL     1      -4.925  10.745  18.453  0.00  0.00    +0.143 A 
ATOM     11  N   UNL     1      -4.703   9.508  17.895  0.00  0.00    -0.220 N 
ATOM     12  N   UNL     1      -5.025   8.546  18.795  0.00  0.00    -0.060 NA
BRANCH  11  13
ATOM     13  C   UNL     1      -4.208   9.188  16.604  0.00  0.00    +0.069 A 
ATOM     14  C   UNL     1      -3.880  10.222  15.716  0.00  0.00    +0.056 A 
ATOM     15  C   UNL     1      -3.425   9.910  14.430  0.00  0.00    +0.107 A 
ATOM     16  C   UNL     1      -3.267   8.584  14.027  0.00  0.00    +0.028 A 
ATOM     17  C   UNL     1      -3.579   7.556  14.917  0.00  0.00    +0.004 A 
ATOM     18  C   UNL     1      -4.052   7.854  16.200  0.00  0.00    +0.028 A 
BRANCH  15  19
ATOM     19  S   UNL     1      -3.072  11.226  13.304  0.00  0.00    +0.056 S 
ATOM     20  O   UNL     1      -1.849  10.920  12.600  0.00  0.00    -0.153 OA
ATOM     21  O   UNL     1      -4.288  11.612  12.625  0.00  0.00    -0.153 OA
BRANCH  19  22
ATOM     22  N   UNL     1      -2.723  12.494  14.347  0.00  0.00    -0.204 NA
ATOM     23  H   UNL     1      -2.815  12.186  15.314  0.00  0.00    +0.144 HD
ATOM     24  H   UNL     1      -3.295  13.307  14.113  0.00  0.00    +0.144 HD
ENDBRANCH  19  22
ENDBRANCH  15  19
ENDBRANCH  11  13
ENDBRANCH   7   9
ENDBRANCH   6   7
ENDBRANCH   2   6
ENDBRANCH   1   4
BRANCH   1  25
ATOM     25  C   UNL     1      -3.182  11.817  24.617  0.00  0.00    +0.163 C 
BRANCH  25  26
ATOM     26  O   UNL     1      -1.983  11.852  25.408  0.00  0.00    -0.388 OA
ATOM     27  H   UNL     1      -2.215  11.884  26.340  0.00  0.00    +0.210 HD
ENDBRANCH  25  26
BRANCH  25  28
ATOM     28  C   UNL     1      -4.403  11.461  25.484  0.00  0.00    +0.175 C 
BRANCH  28  29
ATOM     29  C   UNL     1      -4.090  10.346  26.492  0.00  0.00    +0.176 C 
ATOM     30  O   UNL     1      -3.268   9.353  25.820  0.00  0.00    -0.332 OA
ATOM     31  C   UNL     1      -2.781   8.257  26.663  0.00  0.00    +0.277 C 
ATOM     32  C   UNL     1      -3.963   7.560  27.380  0.00  0.00    +0.110 C 
ATOM     33  C   UNL     1      -4.884   8.578  28.083  0.00  0.00    +0.143 C 
ATOM     34  C   UNL     1      -5.329   9.675  27.115  0.00  0.00    +0.133 C 
BRANCH  34  35
ATOM     35  N   UNL     1      -6.135  10.686  27.817  0.00  0.00    -0.308 N 
ATOM     36  H   UNL     1      -5.668  11.277  28.491  0.00  0.00    +0.149 HD
ATOM     37  C   UNL     1      -7.443  10.875  27.622  0.00  0.00    +0.210 C 
ATOM     38  C   UNL     1      -8.130   9.942  26.607  0.00  0.00    +0.109 C 
ATOM     39  O   UNL     1      -8.089  11.740  28.214  0.00  0.00    -0.276 OA
ENDBRANCH  34  35
BRANCH  31  40
ATOM     40  C   UNL     1      -1.777   8.780  27.713  0.00  0.00    +0.414 C 
ATOM     41  O   UNL     1      -1.677   8.223  28.805  0.00  0.00    -0.240 OA
ATOM     42  O   UNL     1      -1.069   9.757  27.467  0.00  0.00    -0.240 OA
ENDBRANCH  31  40
BRANCH  33  43
ATOM     43  O   UNL     1      -6.036   7.910  28.599  0.00  0.00    -0.390 OA
ATOM     44  H   UNL     1      -6.119   7.048  28.185  0.00  0.00    +0.210 HD
ENDBRANCH  33  43
BRANCH  31  45
ATOM     45  O   UNL     1      -2.128   7.286  25.805  0.00  0.00    -0.343 OA
ATOM     46  C   UNL     1      -2.925   6.117  25.488  0.00  0.00    +0.198 C 
ENDBRANCH  31  45
ENDBRANCH  28  29
BRANCH  28  47
ATOM     47  O   UNL     1      -5.511  11.078  24.646  0.00  0.00    -0.387 OA
ATOM     48  H   UNL     1      -5.275  11.204  23.724  0.00  0.00    +0.210 HD
ENDBRANCH  28  47
ENDBRANCH  25  28
ENDBRANCH   1  25
TORSDOF 16
