REMARK VINA RESULT:    -4.210      2.792      7.130
REMARK INTER + INTRA:         -11.669
REMARK INTER:                  -7.931
REMARK INTRA:                  -3.738
REMARK UNBOUND:                -3.890
REMARK  Name = lig_assembled_66.pdb
REMARK  18 active torsions:
REMARK  status: ('A' for Active; 'I' for Inactive)
REMARK    1  A    between atoms: _2  and  _10
REMARK    2  A    between atoms: _5  and  _21
REMARK    3  A    between atoms: _7  and  _8
REMARK    4  A    between atoms: _7  and  _21
REMARK    5  A    between atoms: _10  and  _11
REMARK    6  A    between atoms: _15  and  _16
REMARK    7  A    between atoms: _17  and  _37
REMARK    8  A    between atoms: _19  and  _25
REMARK    9  A    between atoms: _20  and  _24
REMARK   10  A    between atoms: _24  and  _25
REMARK   11  A    between atoms: _27  and  _28
REMARK   12  A    between atoms: _29  and  _30
REMARK   13  A    between atoms: _31  and  _33
REMARK   14  A    between atoms: _33  and  _34
REMARK   15  A    between atoms: _33  and  _35
REMARK   16  A    between atoms: _35  and  _36
REMARK   17  A    between atoms: _35  and  _37
REMARK   18  A    between atoms: _38  and  _40
REMARK                            x       y       z     vdW  Elec       q    Type
REMARK                         _______ _______ _______ _____ _____    ______ ____
ROOT
ATOM      1  C   UNL     1      -4.045   8.158  29.022  0.00  0.00    +0.163 C 
ENDROOT
BRANCH   1   2
ATOM      2  O   UNL     1      -4.929   7.907  30.127  0.00  0.00    -0.388 OA
ATOM      3  H   UNL     1      -4.541   8.255  30.933  0.00  0.00    +0.210 HD
ENDBRANCH   1   2
BRANCH   1   4
ATOM      4  C   UNL     1      -2.820   8.974  29.471  0.00  0.00    +0.175 C 
BRANCH   4   5
ATOM      5  C   UNL     1      -3.165  10.452  29.705  0.00  0.00    +0.176 C 
ATOM      6  O   UNL     1      -3.899  10.547  30.957  0.00  0.00    -0.332 OA
ATOM      7  C   UNL     1      -4.224  11.907  31.399  0.00  0.00    +0.277 C 
ATOM      8  C   UNL     1      -4.983  12.672  30.287  0.00  0.00    +0.110 C 
ATOM      9  C   UNL     1      -4.256  12.572  28.930  0.00  0.00    +0.143 C 
ATOM     10  C   UNL     1      -3.965  11.115  28.569  0.00  0.00    +0.133 C 
BRANCH  10  11
ATOM     11  N   UNL     1      -3.196  11.038  27.316  0.00  0.00    -0.308 N 
ATOM     12  H   UNL     1      -2.235  11.349  27.333  0.00  0.00    +0.149 HD
ATOM     13  C   UNL     1      -3.685  10.583  26.159  0.00  0.00    +0.210 C 
ATOM     14  C   UNL     1      -5.161  10.141  26.161  0.00  0.00    +0.109 C 
ATOM     15  O   UNL     1      -3.013  10.516  25.130  0.00  0.00    -0.276 OA
ENDBRANCH  10  11
BRANCH   7  16
ATOM     16  C   UNL     1      -2.942  12.680  31.774  0.00  0.00    +0.414 C 
ATOM     17  O   UNL     1      -2.847  13.881  31.524  0.00  0.00    -0.240 OA
ATOM     18  O   UNL     1      -2.004  12.104  32.327  0.00  0.00    -0.240 OA
ENDBRANCH   7  16
BRANCH   7  19
ATOM     19  O   UNL     1      -5.090  11.807  32.559  0.00  0.00    -0.343 OA
ATOM     20  C   UNL     1      -5.901  10.606  32.615  0.00  0.00    +0.198 C 
ENDBRANCH   7  19
BRANCH   9  21
ATOM     21  O   UNL     1      -5.062  13.158  27.907  0.00  0.00    -0.390 OA
ATOM     22  H   UNL     1      -5.973  12.876  28.016  0.00  0.00    +0.210 HD
ENDBRANCH   9  21
ENDBRANCH   4   5
BRANCH   4  23
ATOM     23  O   UNL     1      -1.762   8.858  28.499  0.00  0.00    -0.387 OA
ATOM     24  H   UNL     1      -1.125   9.563  28.634  0.00  0.00    +0.210 HD
ENDBRANCH   4  23
ENDBRANCH   1   4
BRANCH   1  25
ATOM     25  C   UNL     1      -3.582   6.838  28.414  0.00  0.00    +0.141 C 
BRANCH  25  28
ATOM     26  C   UNL     1      -2.900   6.942  26.041  0.00  0.00    +0.401 C 
ATOM     27  O   UNL     1      -1.715   7.169  26.294  0.00  0.00    -0.226 OA
ATOM     28  N   UNL     1      -3.843   6.779  26.970  0.00  0.00    -0.279 N 
ATOM     29  H   UNL     1      -4.790   6.606  26.664  0.00  0.00    +0.152 HD
BRANCH  26  30
ATOM     30  O   UNL     1      -3.313   6.846  24.675  0.00  0.00    -0.444 OA
BRANCH  30  31
ATOM     31  C   UNL     1      -4.741   6.886  24.603  0.00  0.00    +0.292 C 
BRANCH  31  33
ATOM     32  N   UNL     1      -6.400   7.265  22.802  0.00  0.00    -0.131 NA
ATOM     33  C   UNL     1      -5.175   7.538  23.352  0.00  0.00    +0.120 A 
ATOM     34  C   UNL     1      -4.537   8.483  22.582  0.00  0.00    +0.137 A 
ATOM     35  N   UNL     1      -5.448   8.788  21.611  0.00  0.00    -0.247 N 
ATOM     36  N   UNL     1      -6.559   8.039  21.737  0.00  0.00    -0.065 NA
BRANCH  35  37
ATOM     37  C   UNL     1      -5.433   9.931  20.717  0.00  0.00    +0.180 C 
BRANCH  37  38
ATOM     38  C   UNL     1      -4.787  11.153  21.319  0.00  0.00    -0.025 A 
ATOM     39  C   UNL     1      -3.718  11.784  20.667  0.00  0.00    +0.005 A 
ATOM     40  C   UNL     1      -3.169  12.964  21.175  0.00  0.00    +0.002 A 
ATOM     41  C   UNL     1      -3.669  13.517  22.353  0.00  0.00    +0.019 A 
ATOM     42  C   UNL     1      -4.711  12.882  23.034  0.00  0.00    +0.052 A 
ATOM     43  C   UNL     1      -5.269  11.705  22.518  0.00  0.00    +0.024 A 
BRANCH  42  44
ATOM     44  C   UNL     1      -5.217  13.440  24.255  0.00  0.00    +0.099 C 
ATOM     45  N   UNL     1      -5.619  13.890  25.247  0.00  0.00    -0.191 NA
ENDBRANCH  42  44
ENDBRANCH  37  38
ENDBRANCH  35  37
ENDBRANCH  31  33
ENDBRANCH  30  31
ENDBRANCH  26  30
ENDBRANCH  25  28
ENDBRANCH   1  25
TORSDOF 16
