REMARK VINA RESULT:    -4.627      3.125      5.631
REMARK INTER + INTRA:         -11.035
REMARK INTER:                  -7.398
REMARK INTRA:                  -3.637
REMARK UNBOUND:                -2.756
REMARK  Name = lig_assembled_41.pdb
REMARK  18 active torsions:
REMARK  status: ('A' for Active; 'I' for Inactive)
REMARK    1  A    between atoms: _2  and  _9
REMARK    2  A    between atoms: _4  and  _21
REMARK    3  A    between atoms: _6  and  _7
REMARK    4  A    between atoms: _6  and  _21
REMARK    5  A    between atoms: _10  and  _11
REMARK    6  A    between atoms: _11  and  _12
REMARK    7  A    between atoms: _17  and  _37
REMARK    8  A    between atoms: _19  and  _25
REMARK    9  A    between atoms: _20  and  _24
REMARK   10  A    between atoms: _24  and  _25
REMARK   11  A    between atoms: _27  and  _28
REMARK   12  A    between atoms: _29  and  _30
REMARK   13  A    between atoms: _31  and  _33
REMARK   14  A    between atoms: _33  and  _34
REMARK   15  A    between atoms: _33  and  _35
REMARK   16  A    between atoms: _35  and  _36
REMARK   17  A    between atoms: _35  and  _37
REMARK   18  A    between atoms: _38  and  _40
REMARK                            x       y       z     vdW  Elec       q    Type
REMARK                         _______ _______ _______ _____ _____    ______ ____
ROOT
ATOM      1  C   UNL     1      -2.897  11.945  23.166  0.00  0.00    +0.163 C 
ENDROOT
BRANCH   1   2
ATOM      2  O   UNL     1      -2.389  12.078  24.503  0.00  0.00    -0.388 OA
ATOM      3  H   UNL     1      -1.768  12.810  24.539  0.00  0.00    +0.210 HD
ENDBRANCH   1   2
BRANCH   1   4
ATOM      4  C   UNL     1      -3.729  13.169  22.799  0.00  0.00    +0.141 C 
BRANCH   4   7
ATOM      5  C   UNL     1      -5.959  13.331  23.851  0.00  0.00    +0.401 C 
ATOM      6  O   UNL     1      -6.546  12.791  22.910  0.00  0.00    -0.226 OA
ATOM      7  N   UNL     1      -4.645  13.553  23.880  0.00  0.00    -0.279 N 
ATOM      8  H   UNL     1      -4.257  14.012  24.693  0.00  0.00    +0.152 HD
BRANCH   5   9
ATOM      9  O   UNL     1      -6.715  13.756  24.988  0.00  0.00    -0.444 OA
BRANCH   9  10
ATOM     10  C   UNL     1      -7.147  12.613  25.730  0.00  0.00    +0.292 C 
BRANCH  10  12
ATOM     11  N   UNL     1      -7.256  11.985  28.112  0.00  0.00    -0.131 NA
ATOM     12  C   UNL     1      -6.640  12.675  27.112  0.00  0.00    +0.121 A 
ATOM     13  C   UNL     1      -5.553  13.345  27.631  0.00  0.00    +0.143 A 
ATOM     14  N   UNL     1      -5.607  13.119  28.988  0.00  0.00    -0.219 N 
ATOM     15  N   UNL     1      -6.594  12.214  29.236  0.00  0.00    -0.060 NA
BRANCH  14  16
ATOM     16  C   UNL     1      -4.765  13.578  30.041  0.00  0.00    +0.077 A 
ATOM     17  C   UNL     1      -4.833  14.861  30.623  0.00  0.00    +0.043 A 
ATOM     18  C   UNL     1      -3.902  15.201  31.627  0.00  0.00    +0.013 A 
ATOM     19  C   UNL     1      -2.920  14.298  32.043  0.00  0.00    +0.001 A 
ATOM     20  C   UNL     1      -2.869  13.028  31.488  0.00  0.00    +0.002 A 
ATOM     21  C   UNL     1      -3.789  12.666  30.505  0.00  0.00    +0.028 A 
BRANCH  17  22
ATOM     22  C   UNL     1      -5.958  15.819  30.399  0.00  0.00    +0.162 C 
ATOM     23  O   UNL     1      -7.005  15.675  31.027  0.00  0.00    -0.292 OA
ATOM     24  C   UNL     1      -5.807  16.953  29.414  0.00  0.00    +0.091 C 
ENDBRANCH  17  22
ENDBRANCH  14  16
ENDBRANCH  10  12
ENDBRANCH   9  10
ENDBRANCH   5   9
ENDBRANCH   4   7
ENDBRANCH   1   4
BRANCH   1  25
ATOM     25  C   UNL     1      -3.760  10.678  23.029  0.00  0.00    +0.175 C 
BRANCH  25  26
ATOM     26  C   UNL     1      -4.156  10.098  24.394  0.00  0.00    +0.176 C 
ATOM     27  O   UNL     1      -2.979   9.469  24.972  0.00  0.00    -0.332 OA
ATOM     28  C   UNL     1      -3.141   8.948  26.333  0.00  0.00    +0.277 C 
ATOM     29  C   UNL     1      -4.341   7.972  26.399  0.00  0.00    +0.110 C 
ATOM     30  C   UNL     1      -5.609   8.585  25.767  0.00  0.00    +0.143 C 
ATOM     31  C   UNL     1      -5.326   9.097  24.355  0.00  0.00    +0.133 C 
BRANCH  31  32
ATOM     32  N   UNL     1      -6.517   9.757  23.797  0.00  0.00    -0.308 N 
ATOM     33  H   UNL     1      -6.861  10.583  24.265  0.00  0.00    +0.149 HD
ATOM     34  C   UNL     1      -7.174   9.334  22.714  0.00  0.00    +0.210 C 
ATOM     35  C   UNL     1      -6.640   8.056  22.039  0.00  0.00    +0.109 C 
ATOM     36  O   UNL     1      -8.161   9.915  22.261  0.00  0.00    -0.276 OA
ENDBRANCH  31  32
BRANCH  28  37
ATOM     37  C   UNL     1      -3.357  10.100  27.337  0.00  0.00    +0.414 C 
ATOM     38  O   UNL     1      -4.180   9.985  28.244  0.00  0.00    -0.240 OA
ATOM     39  O   UNL     1      -2.708  11.142  27.240  0.00  0.00    -0.240 OA
ENDBRANCH  28  37
BRANCH  30  40
ATOM     40  O   UNL     1      -6.643   7.602  25.713  0.00  0.00    -0.390 OA
ATOM     41  H   UNL     1      -6.492   6.939  26.391  0.00  0.00    +0.210 HD
ENDBRANCH  30  40
BRANCH  28  42
ATOM     42  O   UNL     1      -1.937   8.217  26.680  0.00  0.00    -0.343 OA
ATOM     43  C   UNL     1      -2.161   6.887  27.213  0.00  0.00    +0.198 C 
ENDBRANCH  28  42
ENDBRANCH  25  26
BRANCH  25  44
ATOM     44  O   UNL     1      -3.063   9.685  22.251  0.00  0.00    -0.387 OA
ATOM     45  H   UNL     1      -2.116   9.795  22.365  0.00  0.00    +0.210 HD
ENDBRANCH  25  44
ENDBRANCH   1  25
TORSDOF 15
