REMARK VINA RESULT:    -5.064      4.465     13.076
REMARK INTER + INTRA:         -12.345
REMARK INTER:                  -9.217
REMARK INTRA:                  -3.128
REMARK UNBOUND:                -2.840
REMARK  Name = lig_assembled_77.pdb
REMARK  19 active torsions:
REMARK  status: ('A' for Active; 'I' for Inactive)
REMARK    1  A    between atoms: _2  and  _10
REMARK    2  A    between atoms: _3  and  _17
REMARK    3  A    between atoms: _5  and  _27
REMARK    4  A    between atoms: _7  and  _8
REMARK    5  A    between atoms: _7  and  _27
REMARK    6  A    between atoms: _13  and  _47
REMARK    7  A    between atoms: _14  and  _47
REMARK    8  A    between atoms: _23  and  _43
REMARK    9  A    between atoms: _25  and  _31
REMARK   10  A    between atoms: _26  and  _30
REMARK   11  A    between atoms: _30  and  _31
REMARK   12  A    between atoms: _33  and  _34
REMARK   13  A    between atoms: _35  and  _36
REMARK   14  A    between atoms: _37  and  _39
REMARK   15  A    between atoms: _39  and  _40
REMARK   16  A    between atoms: _39  and  _41
REMARK   17  A    between atoms: _41  and  _42
REMARK   18  A    between atoms: _41  and  _43
REMARK   19  A    between atoms: _44  and  _46
REMARK                            x       y       z     vdW  Elec       q    Type
REMARK                         _______ _______ _______ _____ _____    ______ ____
ROOT
ATOM      1  C   UNL     1      -5.810   7.196  14.092  0.00  0.00    +0.401 C 
ATOM      2  O   UNL     1      -5.811   6.039  13.666  0.00  0.00    -0.226 OA
ATOM      3  N   UNL     1      -4.971   8.144  13.673  0.00  0.00    -0.279 N 
ATOM      4  H   UNL     1      -5.054   9.067  14.075  0.00  0.00    +0.152 HD
ENDROOT
BRANCH   3   5
ATOM      5  C   UNL     1      -3.931   7.922  12.661  0.00  0.00    +0.141 C 
BRANCH   5   6
ATOM      6  C   UNL     1      -3.020   9.135  12.506  0.00  0.00    +0.163 C 
BRANCH   6   7
ATOM      7  O   UNL     1      -3.000   9.563  11.134  0.00  0.00    -0.388 OA
ATOM      8  H   UNL     1      -2.837  10.508  11.096  0.00  0.00    +0.210 HD
ENDBRANCH   6   7
BRANCH   6   9
ATOM      9  C   UNL     1      -3.507  10.265  13.428  0.00  0.00    +0.175 C 
BRANCH   9  10
ATOM     10  C   UNL     1      -3.531  11.624  12.713  0.00  0.00    +0.176 C 
ATOM     11  O   UNL     1      -2.194  12.192  12.785  0.00  0.00    -0.332 OA
ATOM     12  C   UNL     1      -2.000  13.450  12.060  0.00  0.00    +0.277 C 
ATOM     13  C   UNL     1      -3.040  14.503  12.513  0.00  0.00    +0.110 C 
ATOM     14  C   UNL     1      -4.475  13.936  12.484  0.00  0.00    +0.143 C 
ATOM     15  C   UNL     1      -4.563  12.625  13.266  0.00  0.00    +0.133 C 
BRANCH  15  16
ATOM     16  N   UNL     1      -5.913  12.050  13.158  0.00  0.00    -0.308 N 
ATOM     17  H   UNL     1      -6.262  11.837  12.234  0.00  0.00    +0.149 HD
ATOM     18  C   UNL     1      -6.706  11.790  14.201  0.00  0.00    +0.210 C 
ATOM     19  C   UNL     1      -6.155  12.150  15.593  0.00  0.00    +0.109 C 
ATOM     20  O   UNL     1      -7.827  11.294  14.081  0.00  0.00    -0.276 OA
ENDBRANCH  15  16
BRANCH  12  21
ATOM     21  C   UNL     1      -2.121  13.228  10.538  0.00  0.00    +0.414 C 
ATOM     22  O   UNL     1      -2.651  14.081   9.827  0.00  0.00    -0.240 OA
ATOM     23  O   UNL     1      -1.688  12.197  10.021  0.00  0.00    -0.240 OA
ENDBRANCH  12  21
BRANCH  14  24
ATOM     24  O   UNL     1      -5.380  14.884  13.050  0.00  0.00    -0.390 OA
ATOM     25  H   UNL     1      -5.316  15.714  12.572  0.00  0.00    +0.210 HD
ENDBRANCH  14  24
BRANCH  12  26
ATOM     26  O   UNL     1      -0.675  13.950  12.376  0.00  0.00    -0.343 OA
ATOM     27  C   UNL     1      -0.365  15.255  11.824  0.00  0.00    +0.198 C 
ENDBRANCH  12  26
ENDBRANCH   9  10
BRANCH   9  28
ATOM     28  O   UNL     1      -2.679  10.338  14.605  0.00  0.00    -0.387 OA
ATOM     29  H   UNL     1      -3.206  10.637  15.350  0.00  0.00    +0.210 HD
ENDBRANCH   9  28
ENDBRANCH   6   9
ENDBRANCH   5   6
ENDBRANCH   3   5
BRANCH   1  30
ATOM     30  O   UNL     1      -6.762   7.569  15.092  0.00  0.00    -0.444 OA
BRANCH  30  31
ATOM     31  C   UNL     1      -6.276   7.184  16.381  0.00  0.00    +0.292 C 
BRANCH  31  33
ATOM     32  N   UNL     1      -4.508   8.901  16.584  0.00  0.00    -0.131 NA
ATOM     33  C   UNL     1      -5.653   8.336  17.063  0.00  0.00    +0.121 A 
ATOM     34  C   UNL     1      -6.050   9.011  18.194  0.00  0.00    +0.143 A 
ATOM     35  N   UNL     1      -5.110  10.001  18.365  0.00  0.00    -0.220 N 
ATOM     36  N   UNL     1      -4.178   9.905  17.384  0.00  0.00    -0.060 NA
BRANCH  35  37
ATOM     37  C   UNL     1      -5.074  11.039  19.334  0.00  0.00    +0.067 A 
ATOM     38  C   UNL     1      -4.000  11.150  20.231  0.00  0.00    +0.030 A 
ATOM     39  C   UNL     1      -4.038  12.101  21.255  0.00  0.00    +0.029 A 
ATOM     40  C   UNL     1      -5.146  12.942  21.377  0.00  0.00    +0.094 A 
ATOM     41  C   UNL     1      -6.178  12.902  20.435  0.00  0.00    +0.029 A 
ATOM     42  C   UNL     1      -6.147  11.942  19.421  0.00  0.00    +0.030 A 
BRANCH  40  43
ATOM     43  S   UNL     1      -5.226  14.106  22.724  0.00  0.00    +0.025 S 
ATOM     44  O   UNL     1      -4.251  15.140  22.422  0.00  0.00    -0.164 OA
ATOM     45  O   UNL     1      -6.622  14.442  22.925  0.00  0.00    -0.164 OA
BRANCH  43  46
ATOM     46  C   UNL     1      -4.684  13.298  24.216  0.00  0.00    +0.094 A 
ATOM     47  C   UNL     1      -3.375  12.835  24.349  0.00  0.00    +0.029 A 
ATOM     48  C   UNL     1      -3.000  12.150  25.511  0.00  0.00    +0.024 A 
ATOM     49  C   UNL     1      -3.906  11.962  26.563  0.00  0.00    +0.025 A 
ATOM     50  C   UNL     1      -5.222  12.406  26.399  0.00  0.00    +0.024 A 
ATOM     51  C   UNL     1      -5.609  13.090  25.244  0.00  0.00    +0.029 A 
BRANCH  49  52
ATOM     52  N   UNL     1      -3.575  11.132  27.637  0.00  0.00    -0.358 N 
ATOM     53  H   UNL     1      -4.295  10.466  27.898  0.00  0.00    +0.142 HD
ATOM     54  H   UNL     1      -2.656  10.706  27.571  0.00  0.00    +0.142 HD
ENDBRANCH  49  52
ENDBRANCH  43  46
ENDBRANCH  40  43
ENDBRANCH  35  37
ENDBRANCH  31  33
ENDBRANCH  30  31
ENDBRANCH   1  30
TORSDOF 17
