REMARK VINA RESULT:    -5.390      2.586      3.500
REMARK INTER + INTRA:         -12.196
REMARK INTER:                  -9.464
REMARK INTRA:                  -2.732
REMARK UNBOUND:                -2.867
REMARK  Name = lig_assembled_70.pdb
REMARK  16 active torsions:
REMARK  status: ('A' for Active; 'I' for Inactive)
REMARK    1  A    between atoms: _2  and  _10
REMARK    2  A    between atoms: _5  and  _22
REMARK    3  A    between atoms: _7  and  _8
REMARK    4  A    between atoms: _7  and  _22
REMARK    5  A    between atoms: _18  and  _38
REMARK    6  A    between atoms: _20  and  _26
REMARK    7  A    between atoms: _21  and  _25
REMARK    8  A    between atoms: _25  and  _26
REMARK    9  A    between atoms: _28  and  _29
REMARK   10  A    between atoms: _30  and  _31
REMARK   11  A    between atoms: _32  and  _34
REMARK   12  A    between atoms: _34  and  _35
REMARK   13  A    between atoms: _34  and  _36
REMARK   14  A    between atoms: _36  and  _37
REMARK   15  A    between atoms: _36  and  _38
REMARK   16  A    between atoms: _39  and  _41
REMARK                            x       y       z     vdW  Elec       q    Type
REMARK                         _______ _______ _______ _____ _____    ______ ____
ROOT
ATOM      1  C   UNL     1      -2.993  11.922  24.169  0.00  0.00    +0.163 C 
ENDROOT
BRANCH   1   2
ATOM      2  O   UNL     1      -2.053  11.868  25.255  0.00  0.00    -0.388 OA
ATOM      3  H   UNL     1      -1.224  11.497  24.943  0.00  0.00    +0.210 HD
ENDBRANCH   1   2
BRANCH   1   4
ATOM      4  C   UNL     1      -3.928  13.113  24.348  0.00  0.00    +0.141 C 
BRANCH   4   7
ATOM      5  C   UNL     1      -5.420  13.496  22.416  0.00  0.00    +0.401 C 
ATOM      6  O   UNL     1      -4.619  14.221  21.821  0.00  0.00    -0.226 OA
ATOM      7  N   UNL     1      -5.182  12.941  23.605  0.00  0.00    -0.279 N 
ATOM      8  H   UNL     1      -5.906  12.369  24.017  0.00  0.00    +0.152 HD
BRANCH   5   9
ATOM      9  O   UNL     1      -6.689  13.224  21.816  0.00  0.00    -0.444 OA
BRANCH   9  10
ATOM     10  C   UNL     1      -6.835  11.815  21.623  0.00  0.00    +0.292 C 
BRANCH  10  12
ATOM     11  N   UNL     1      -5.186  10.260  20.618  0.00  0.00    -0.131 NA
ATOM     12  C   UNL     1      -5.991  11.357  20.503  0.00  0.00    +0.121 A 
ATOM     13  C   UNL     1      -5.854  11.883  19.240  0.00  0.00    +0.143 A 
ATOM     14  N   UNL     1      -4.954  11.058  18.606  0.00  0.00    -0.218 N 
ATOM     15  N   UNL     1      -4.554  10.089  19.462  0.00  0.00    -0.060 NA
BRANCH  14  16
ATOM     16  C   UNL     1      -4.492  11.125  17.275  0.00  0.00    +0.086 A 
ATOM     17  C   UNL     1      -4.218   9.966  16.567  0.00  0.00    +0.139 A 
ATOM     18  N   UNL     1      -3.814   9.957  15.270  0.00  0.00    -0.253 NA
ATOM     19  C   UNL     1      -3.681  11.135  14.634  0.00  0.00    +0.071 A 
ATOM     20  C   UNL     1      -3.923  12.366  15.280  0.00  0.00    +0.002 A 
ATOM     21  C   UNL     1      -3.774  13.579  14.583  0.00  0.00    +0.010 A 
ATOM     22  C   UNL     1      -3.406  13.577  13.241  0.00  0.00    +0.001 A 
ATOM     23  C   UNL     1      -3.175  12.367  12.597  0.00  0.00    +0.002 A 
ATOM     24  C   UNL     1      -3.307  11.164  13.298  0.00  0.00    +0.028 A 
ATOM     25  C   UNL     1      -4.324  12.346  16.621  0.00  0.00    +0.039 A 
ENDBRANCH  14  16
ENDBRANCH  10  12
ENDBRANCH   9  10
ENDBRANCH   5   9
ENDBRANCH   4   7
ENDBRANCH   1   4
BRANCH   1  26
ATOM     26  C   UNL     1      -3.819  10.627  24.093  0.00  0.00    +0.175 C 
BRANCH  26  27
ATOM     27  C   UNL     1      -3.821   9.862  25.425  0.00  0.00    +0.176 C 
ATOM     28  O   UNL     1      -2.850   8.785  25.323  0.00  0.00    -0.332 OA
ATOM     29  C   UNL     1      -2.636   8.006  26.547  0.00  0.00    +0.277 C 
ATOM     30  C   UNL     1      -3.981   7.450  27.076  0.00  0.00    +0.110 C 
ATOM     31  C   UNL     1      -5.055   8.554  27.171  0.00  0.00    +0.143 C 
ATOM     32  C   UNL     1      -5.192   9.302  25.845  0.00  0.00    +0.133 C 
BRANCH  32  33
ATOM     33  N   UNL     1      -6.156  10.407  25.973  0.00  0.00    -0.308 N 
ATOM     34  H   UNL     1      -5.942  11.146  26.628  0.00  0.00    +0.149 HD
ATOM     35  C   UNL     1      -7.295  10.497  25.281  0.00  0.00    +0.210 C 
ATOM     36  C   UNL     1      -7.605   9.342  24.310  0.00  0.00    +0.109 C 
ATOM     37  O   UNL     1      -8.076  11.442  25.399  0.00  0.00    -0.276 OA
ENDBRANCH  32  33
BRANCH  29  38
ATOM     38  C   UNL     1      -1.971   8.872  27.637  0.00  0.00    +0.414 C 
ATOM     39  O   UNL     1      -2.199   8.654  28.826  0.00  0.00    -0.240 OA
ATOM     40  O   UNL     1      -1.207   9.787  27.327  0.00  0.00    -0.240 OA
ENDBRANCH  29  38
BRANCH  31  41
ATOM     41  O   UNL     1      -6.313   7.973  27.516  0.00  0.00    -0.390 OA
ATOM     42  H   UNL     1      -6.198   7.375  28.258  0.00  0.00    +0.210 HD
ENDBRANCH  31  41
BRANCH  29  43
ATOM     43  O   UNL     1      -1.775   6.885  26.221  0.00  0.00    -0.343 OA
ATOM     44  C   UNL     1      -2.335   5.579  26.506  0.00  0.00    +0.198 C 
ENDBRANCH  29  43
ENDBRANCH  26  27
BRANCH  26  45
ATOM     45  O   UNL     1      -3.322   9.782  23.036  0.00  0.00    -0.387 OA
ATOM     46  H   UNL     1      -3.531   8.866  23.233  0.00  0.00    +0.210 HD
ENDBRANCH  26  45
ENDBRANCH   1  26
TORSDOF 14
