REMARK VINA RESULT:    -5.324      4.991     14.567
REMARK INTER + INTRA:         -11.529
REMARK INTER:                  -9.840
REMARK INTRA:                  -1.690
REMARK UNBOUND:                -2.004
REMARK  Name = lig_assembled_6.pdb
REMARK  17 active torsions:
REMARK  status: ('A' for Active; 'I' for Inactive)
REMARK    1  A    between atoms: _2  and  _10
REMARK    2  A    between atoms: _3  and  _13
REMARK    3  A    between atoms: _5  and  _21
REMARK    4  A    between atoms: _7  and  _8
REMARK    5  A    between atoms: _7  and  _21
REMARK    6  A    between atoms: _17  and  _37
REMARK    7  A    between atoms: _19  and  _25
REMARK    8  A    between atoms: _20  and  _24
REMARK    9  A    between atoms: _24  and  _25
REMARK   10  A    between atoms: _27  and  _28
REMARK   11  A    between atoms: _29  and  _30
REMARK   12  A    between atoms: _31  and  _33
REMARK   13  A    between atoms: _33  and  _34
REMARK   14  A    between atoms: _33  and  _35
REMARK   15  A    between atoms: _35  and  _36
REMARK   16  A    between atoms: _35  and  _37
REMARK   17  A    between atoms: _38  and  _40
REMARK                            x       y       z     vdW  Elec       q    Type
REMARK                         _______ _______ _______ _____ _____    ______ ____
ROOT
ATOM      1  C   UNL     1      -1.955  13.567  12.227  0.00  0.00    +0.163 C 
ENDROOT
BRANCH   1   2
ATOM      2  O   UNL     1      -1.291  14.167  13.351  0.00  0.00    -0.388 OA
ATOM      3  H   UNL     1      -1.758  14.965  13.610  0.00  0.00    +0.210 HD
ENDBRANCH   1   2
BRANCH   1   4
ATOM      4  C   UNL     1      -2.788  12.376  12.689  0.00  0.00    +0.141 C 
BRANCH   4   7
ATOM      5  C   UNL     1      -4.131  12.087  14.742  0.00  0.00    +0.401 C 
ATOM      6  O   UNL     1      -3.571  11.039  15.074  0.00  0.00    -0.226 OA
ATOM      7  N   UNL     1      -3.833  12.775  13.640  0.00  0.00    -0.279 N 
ATOM      8  H   UNL     1      -4.354  13.619  13.448  0.00  0.00    +0.152 HD
BRANCH   5   9
ATOM      9  O   UNL     1      -5.169  12.612  15.573  0.00  0.00    -0.444 OA
BRANCH   9  10
ATOM     10  C   UNL     1      -5.803  11.542  16.280  0.00  0.00    +0.292 C 
BRANCH  10  12
ATOM     11  N   UNL     1      -6.758  12.343  18.419  0.00  0.00    -0.131 NA
ATOM     12  C   UNL     1      -5.726  11.770  17.735  0.00  0.00    +0.121 A 
ATOM     13  C   UNL     1      -4.712  11.475  18.617  0.00  0.00    +0.143 A 
ATOM     14  N   UNL     1      -5.189  11.861  19.849  0.00  0.00    -0.220 N 
ATOM     15  N   UNL     1      -6.422  12.402  19.700  0.00  0.00    -0.060 NA
BRANCH  14  16
ATOM     16  C   UNL     1      -4.578  11.716  21.123  0.00  0.00    +0.067 A 
ATOM     17  C   UNL     1      -4.168  12.843  21.852  0.00  0.00    +0.034 A 
ATOM     18  C   UNL     1      -3.512  12.686  23.077  0.00  0.00    +0.086 A 
ATOM     19  C   UNL     1      -3.269  11.401  23.577  0.00  0.00    +0.273 A 
ATOM     20  C   UNL     1      -3.698  10.271  22.871  0.00  0.00    +0.086 A 
ATOM     21  C   UNL     1      -4.354  10.431  21.645  0.00  0.00    +0.034 A 
BRANCH  19  22
ATOM     22  N   UNL     1      -2.541  11.241  24.843  0.00  0.00    +0.080 N 
ATOM     23  O   UNL     1      -1.994  12.245  25.322  0.00  0.00    +0.041 OA
ATOM     24  O   UNL     1      -2.512  10.113  25.354  0.00  0.00    -0.576 OA
ENDBRANCH  19  22
ENDBRANCH  14  16
ENDBRANCH  10  12
ENDBRANCH   9  10
ENDBRANCH   5   9
ENDBRANCH   4   7
ENDBRANCH   1   4
BRANCH   1  25
ATOM     25  C   UNL     1      -0.937  13.103  11.170  0.00  0.00    +0.175 C 
BRANCH  25  26
ATOM     26  C   UNL     1      -0.227  14.285  10.494  0.00  0.00    +0.176 C 
ATOM     27  O   UNL     1       0.779  14.789  11.415  0.00  0.00    -0.332 OA
ATOM     28  C   UNL     1       1.635  15.860  10.896  0.00  0.00    +0.277 C 
ATOM     29  C   UNL     1       0.773  17.033  10.368  0.00  0.00    +0.110 C 
ATOM     30  C   UNL     1      -0.331  16.543   9.409  0.00  0.00    +0.143 C 
ATOM     31  C   UNL     1      -1.159  15.428  10.049  0.00  0.00    +0.133 C 
BRANCH  31  32
ATOM     32  N   UNL     1      -2.151  14.909   9.094  0.00  0.00    -0.308 N 
ATOM     33  H   UNL     1      -1.812  14.378   8.304  0.00  0.00    +0.149 HD
ATOM     34  C   UNL     1      -3.469  15.094   9.203  0.00  0.00    +0.210 C 
ATOM     35  C   UNL     1      -3.951  15.930  10.404  0.00  0.00    +0.109 C 
ATOM     36  O   UNL     1      -4.278  14.635   8.396  0.00  0.00    -0.276 OA
ENDBRANCH  31  32
BRANCH  28  37
ATOM     37  C   UNL     1       2.540  15.335   9.762  0.00  0.00    +0.414 C 
ATOM     38  O   UNL     1       3.000  14.195   9.813  0.00  0.00    -0.240 OA
ATOM     39  O   UNL     1       2.811  16.051   8.797  0.00  0.00    -0.240 OA
ENDBRANCH  28  37
BRANCH  30  40
ATOM     40  O   UNL     1      -1.191  17.630   9.068  0.00  0.00    -0.390 OA
ATOM     41  H   UNL     1      -1.679  17.909   9.846  0.00  0.00    +0.210 HD
ENDBRANCH  30  40
BRANCH  28  42
ATOM     42  O   UNL     1       2.454  16.349  11.988  0.00  0.00    -0.343 OA
ATOM     43  C   UNL     1       2.280  17.754  12.303  0.00  0.00    +0.198 C 
ENDBRANCH  28  42
ENDBRANCH  25  26
BRANCH  25  44
ATOM     44  O   UNL     1      -1.588  12.282  10.180  0.00  0.00    -0.387 OA
ATOM     45  H   UNL     1      -2.012  11.536  10.611  0.00  0.00    +0.210 HD
ENDBRANCH  25  44
ENDBRANCH   1  25
TORSDOF 15
