REMARK VINA RESULT:    -4.358      4.129      9.659
REMARK INTER + INTRA:         -11.865
REMARK INTER:                  -8.028
REMARK INTRA:                  -3.838
REMARK UNBOUND:                -3.049
REMARK  Name = lig_assembled_45.pdb
REMARK  24 active torsions:
REMARK  status: ('A' for Active; 'I' for Inactive)
REMARK    1  A    between atoms: _2  and  _10
REMARK    2  A    between atoms: _3  and  _12
REMARK    3  A    between atoms: _3  and  _13
REMARK    4  A    between atoms: _3  and  _14
REMARK    5  A    between atoms: _3  and  _16
REMARK    6  A    between atoms: _5  and  _21
REMARK    7  A    between atoms: _6  and  _16
REMARK    8  A    between atoms: _7  and  _8
REMARK    9  A    between atoms: _7  and  _21
REMARK   10  A    between atoms: _10  and  _11
REMARK   11  A    between atoms: _11  and  _12
REMARK   12  A    between atoms: _14  and  _15
REMARK   13  A    between atoms: _17  and  _37
REMARK   14  A    between atoms: _19  and  _25
REMARK   15  A    between atoms: _20  and  _24
REMARK   16  A    between atoms: _24  and  _25
REMARK   17  A    between atoms: _27  and  _28
REMARK   18  A    between atoms: _29  and  _30
REMARK   19  A    between atoms: _31  and  _33
REMARK   20  A    between atoms: _33  and  _34
REMARK   21  A    between atoms: _33  and  _35
REMARK   22  A    between atoms: _35  and  _36
REMARK   23  A    between atoms: _35  and  _37
REMARK   24  A    between atoms: _38  and  _40
REMARK                            x       y       z     vdW  Elec       q    Type
REMARK                         _______ _______ _______ _____ _____    ______ ____
ROOT
ATOM      1  C   UNL     1      -3.955  13.254  21.847  0.00  0.00    +0.163 C 
ENDROOT
BRANCH   1   2
ATOM      2  O   UNL     1      -5.076  13.135  20.956  0.00  0.00    -0.388 OA
ATOM      3  H   UNL     1      -5.888  13.320  21.435  0.00  0.00    +0.210 HD
ENDBRANCH   1   2
BRANCH   1   4
ATOM      4  C   UNL     1      -4.378  12.983  23.302  0.00  0.00    +0.175 C 
BRANCH   4   5
ATOM      5  C   UNL     1      -5.557  13.867  23.735  0.00  0.00    +0.176 C 
ATOM      6  O   UNL     1      -5.274  15.229  23.313  0.00  0.00    -0.332 OA
ATOM      7  C   UNL     1      -6.344  16.202  23.549  0.00  0.00    +0.277 C 
ATOM      8  C   UNL     1      -6.764  16.193  25.040  0.00  0.00    +0.110 C 
ATOM      9  C   UNL     1      -7.045  14.761  25.543  0.00  0.00    +0.143 C 
ATOM     10  C   UNL     1      -5.868  13.833  25.243  0.00  0.00    +0.133 C 
BRANCH  10  11
ATOM     11  N   UNL     1      -6.183  12.454  25.648  0.00  0.00    -0.308 N 
ATOM     12  H   UNL     1      -6.901  11.963  25.134  0.00  0.00    +0.149 HD
ATOM     13  C   UNL     1      -5.582  11.809  26.651  0.00  0.00    +0.210 C 
ATOM     14  C   UNL     1      -4.510  12.593  27.432  0.00  0.00    +0.109 C 
ATOM     15  O   UNL     1      -5.856  10.648  26.960  0.00  0.00    -0.276 OA
ENDBRANCH  10  11
BRANCH   7  16
ATOM     16  C   UNL     1      -7.571  15.891  22.667  0.00  0.00    +0.414 C 
ATOM     17  O   UNL     1      -8.693  16.257  23.013  0.00  0.00    -0.240 OA
ATOM     18  O   UNL     1      -7.438  15.275  21.608  0.00  0.00    -0.240 OA
ENDBRANCH   7  16
BRANCH   9  19
ATOM     19  O   UNL     1      -7.279  14.783  26.952  0.00  0.00    -0.390 OA
ATOM     20  H   UNL     1      -6.501  14.460  27.411  0.00  0.00    +0.210 HD
ENDBRANCH   9  19
BRANCH   7  21
ATOM     21  O   UNL     1      -5.832  17.521  23.227  0.00  0.00    -0.343 OA
ATOM     22  C   UNL     1      -6.127  18.549  24.206  0.00  0.00    +0.198 C 
ENDBRANCH   7  21
ENDBRANCH   4   5
BRANCH   4  23
ATOM     23  O   UNL     1      -3.259  13.179  24.189  0.00  0.00    -0.387 OA
ATOM     24  H   UNL     1      -2.686  13.864  23.836  0.00  0.00    +0.210 HD
ENDBRANCH   4  23
ENDBRANCH   1   4
BRANCH   1  25
ATOM     25  C   UNL     1      -2.861  12.271  21.444  0.00  0.00    +0.141 C 
BRANCH  25  28
ATOM     26  C   UNL     1      -3.597   9.950  21.863  0.00  0.00    +0.401 C 
ATOM     27  O   UNL     1      -4.260   9.873  20.826  0.00  0.00    -0.226 OA
ATOM     28  N   UNL     1      -2.916  11.035  22.234  0.00  0.00    -0.279 N 
ATOM     29  H   UNL     1      -2.410  11.005  23.108  0.00  0.00    +0.152 HD
BRANCH  26  30
ATOM     30  O   UNL     1      -3.544   8.821  22.739  0.00  0.00    -0.444 OA
BRANCH  30  31
ATOM     31  C   UNL     1      -4.287   9.104  23.928  0.00  0.00    +0.292 C 
BRANCH  31  33
ATOM     32  N   UNL     1      -2.478  10.297  25.136  0.00  0.00    -0.131 NA
ATOM     33  C   UNL     1      -3.373   9.262  25.075  0.00  0.00    +0.120 A 
ATOM     34  C   UNL     1      -3.238   8.485  26.203  0.00  0.00    +0.137 A 
ATOM     35  N   UNL     1      -2.249   9.108  26.900  0.00  0.00    -0.251 N 
ATOM     36  N   UNL     1      -1.788  10.187  26.264  0.00  0.00    -0.065 NA
BRANCH  35  37
ATOM     37  C   UNL     1      -1.683   8.704  28.171  0.00  0.00    +0.150 C 
BRANCH  37  38
ATOM     38  C   UNL     1      -2.689   8.764  29.313  0.00  0.00    +0.074 C 
BRANCH  38  39
ATOM     39  C   UNL     1      -3.385  10.110  29.552  0.00  0.00    +0.134 C 
BRANCH  39  40
ATOM     40  N   UNL     1      -4.003  10.376  30.964  0.00  0.00    +0.241 N 
ATOM     41  C   UNL     1      -3.970   9.067  31.773  0.00  0.00    +0.192 C 
BRANCH  40  42
ATOM     42  C   UNL     1      -5.498  10.767  30.716  0.00  0.00    +0.129 C 
ATOM     43  C   UNL     1      -6.414   9.578  30.450  0.00  0.00    +0.060 C 
ENDBRANCH  40  42
BRANCH  40  44
ATOM     44  C   UNL     1      -3.305  11.482  31.777  0.00  0.00    +0.129 C 
ATOM     45  C   UNL     1      -3.446  12.874  31.185  0.00  0.00    +0.060 C 
ENDBRANCH  40  44
ENDBRANCH  39  40
ENDBRANCH  38  39
ENDBRANCH  37  38
ENDBRANCH  35  37
ENDBRANCH  31  33
ENDBRANCH  30  31
ENDBRANCH  26  30
ENDBRANCH  25  28
ENDBRANCH   1  25
TORSDOF 19
