REMARK VINA RESULT:    -4.231      2.447      6.552
REMARK INTER + INTRA:         -11.414
REMARK INTER:                  -7.827
REMARK INTRA:                  -3.588
REMARK UNBOUND:                -3.721
REMARK  Name = lig_assembled_35.pdb
REMARK  19 active torsions:
REMARK  status: ('A' for Active; 'I' for Inactive)
REMARK    1  A    between atoms: _2  and  _9
REMARK    2  A    between atoms: _4  and  _17
REMARK    3  A    between atoms: _5  and  _9
REMARK    4  A    between atoms: _5  and  _11
REMARK    5  A    between atoms: _6  and  _7
REMARK    6  A    between atoms: _6  and  _17
REMARK    7  A    between atoms: _9  and  _10
REMARK    8  A    between atoms: _13  and  _33
REMARK    9  A    between atoms: _15  and  _21
REMARK   10  A    between atoms: _16  and  _20
REMARK   11  A    between atoms: _20  and  _21
REMARK   12  A    between atoms: _23  and  _24
REMARK   13  A    between atoms: _25  and  _26
REMARK   14  A    between atoms: _27  and  _29
REMARK   15  A    between atoms: _29  and  _30
REMARK   16  A    between atoms: _29  and  _31
REMARK   17  A    between atoms: _31  and  _32
REMARK   18  A    between atoms: _31  and  _33
REMARK   19  A    between atoms: _34  and  _36
REMARK                            x       y       z     vdW  Elec       q    Type
REMARK                         _______ _______ _______ _____ _____    ______ ____
ROOT
ATOM      1  C   UNL     1      -6.531   8.790  23.320  0.00  0.00    +0.163 C 
ENDROOT
BRANCH   1   2
ATOM      2  O   UNL     1      -6.070   8.570  24.663  0.00  0.00    -0.388 OA
ATOM      3  H   UNL     1      -5.131   8.764  24.716  0.00  0.00    +0.210 HD
ENDBRANCH   1   2
BRANCH   1   4
ATOM      4  C   UNL     1      -6.462  10.282  22.951  0.00  0.00    +0.175 C 
BRANCH   4   5
ATOM      5  C   UNL     1      -5.131  10.921  23.373  0.00  0.00    +0.176 C 
ATOM      6  O   UNL     1      -5.180  11.150  24.808  0.00  0.00    -0.332 OA
ATOM      7  C   UNL     1      -3.945  11.662  25.411  0.00  0.00    +0.277 C 
ATOM      8  C   UNL     1      -3.486  12.953  24.690  0.00  0.00    +0.110 C 
ATOM      9  C   UNL     1      -3.449  12.767  23.158  0.00  0.00    +0.143 C 
ATOM     10  C   UNL     1      -4.782  12.228  22.638  0.00  0.00    +0.133 C 
BRANCH  10  11
ATOM     11  N   UNL     1      -4.706  11.974  21.191  0.00  0.00    -0.308 N 
ATOM     12  H   UNL     1      -3.946  11.400  20.853  0.00  0.00    +0.149 HD
ATOM     13  C   UNL     1      -5.575  12.451  20.296  0.00  0.00    +0.210 C 
ATOM     14  C   UNL     1      -6.706  13.343  20.841  0.00  0.00    +0.109 C 
ATOM     15  O   UNL     1      -5.495  12.209  19.091  0.00  0.00    -0.276 OA
ENDBRANCH  10  11
BRANCH   7  16
ATOM     16  C   UNL     1      -2.823  10.605  25.341  0.00  0.00    +0.414 C 
ATOM     17  O   UNL     1      -2.986   9.570  24.696  0.00  0.00    -0.240 OA
ATOM     18  O   UNL     1      -1.756  10.788  25.927  0.00  0.00    -0.240 OA
ENDBRANCH   7  16
BRANCH   7  19
ATOM     19  O   UNL     1      -4.224  11.987  26.797  0.00  0.00    -0.343 OA
ATOM     20  C   UNL     1      -5.537  11.592  27.267  0.00  0.00    +0.198 C 
ENDBRANCH   7  19
BRANCH   9  21
ATOM     21  O   UNL     1      -3.169  14.018  22.528  0.00  0.00    -0.390 OA
ATOM     22  H   UNL     1      -2.788  14.622  23.169  0.00  0.00    +0.210 HD
ENDBRANCH   9  21
ENDBRANCH   4   5
BRANCH   4  23
ATOM     23  O   UNL     1      -7.565  10.992  23.549  0.00  0.00    -0.387 OA
ATOM     24  H   UNL     1      -7.278  11.871  23.807  0.00  0.00    +0.210 HD
ENDBRANCH   4  23
ENDBRANCH   1   4
BRANCH   1  25
ATOM     25  C   UNL     1      -5.684   7.984  22.340  0.00  0.00    +0.141 C 
BRANCH  25  28
ATOM     26  C   UNL     1      -3.923   6.351  22.920  0.00  0.00    +0.401 C 
ATOM     27  O   UNL     1      -4.527   5.388  22.444  0.00  0.00    -0.226 OA
ATOM     28  N   UNL     1      -4.392   7.600  22.920  0.00  0.00    -0.279 N 
ATOM     29  H   UNL     1      -3.826   8.322  23.344  0.00  0.00    +0.152 HD
BRANCH  26  30
ATOM     30  O   UNL     1      -2.641   6.141  23.517  0.00  0.00    -0.444 OA
BRANCH  30  31
ATOM     31  C   UNL     1      -2.796   5.414  24.739  0.00  0.00    +0.292 C 
BRANCH  31  33
ATOM     32  N   UNL     1      -1.693   6.923  26.361  0.00  0.00    -0.131 NA
ATOM     33  C   UNL     1      -2.839   6.343  25.885  0.00  0.00    +0.120 A 
ATOM     34  C   UNL     1      -3.907   6.774  26.639  0.00  0.00    +0.138 A 
ATOM     35  N   UNL     1      -3.349   7.626  27.547  0.00  0.00    -0.238 N 
ATOM     36  N   UNL     1      -2.016   7.695  27.389  0.00  0.00    -0.065 NA
BRANCH  35  37
ATOM     37  C   UNL     1      -3.975   8.389  28.609  0.00  0.00    +0.214 C 
ATOM     38  C   UNL     1      -4.778   7.479  29.534  0.00  0.00    +0.045 C 
BRANCH  37  39
ATOM     39  C   UNL     1      -2.961   9.222  29.366  0.00  0.00    +0.329 C 
ATOM     40  O   UNL     1      -2.577   8.979  30.502  0.00  0.00    -0.249 OA
BRANCH  39  41
ATOM     41  O   UNL     1      -2.512  10.308  28.689  0.00  0.00    -0.479 OA
ATOM     42  H   UNL     1      -1.654  10.671  28.990  0.00  0.00    +0.295 HD
ENDBRANCH  39  41
ENDBRANCH  37  39
ENDBRANCH  35  37
ENDBRANCH  31  33
ENDBRANCH  30  31
ENDBRANCH  26  30
ENDBRANCH  25  28
ENDBRANCH   1  25
TORSDOF 16
