REMARK VINA RESULT:    -4.053      3.737      6.635
REMARK INTER + INTRA:         -10.411
REMARK INTER:                  -7.860
REMARK INTRA:                  -2.551
REMARK UNBOUND:                -3.040
REMARK  Name = lig_assembled_1.pdb
REMARK  18 active torsions:
REMARK  status: ('A' for Active; 'I' for Inactive)
REMARK    1  A    between atoms: _2  and  _9
REMARK    2  A    between atoms: _4  and  _15
REMARK    3  A    between atoms: _5  and  _9
REMARK    4  A    between atoms: _5  and  _10
REMARK    5  A    between atoms: _6  and  _7
REMARK    6  A    between atoms: _6  and  _15
REMARK    7  A    between atoms: _11  and  _31
REMARK    8  A    between atoms: _13  and  _19
REMARK    9  A    between atoms: _14  and  _18
REMARK   10  A    between atoms: _18  and  _19
REMARK   11  A    between atoms: _21  and  _22
REMARK   12  A    between atoms: _23  and  _24
REMARK   13  A    between atoms: _25  and  _27
REMARK   14  A    between atoms: _27  and  _28
REMARK   15  A    between atoms: _27  and  _29
REMARK   16  A    between atoms: _29  and  _30
REMARK   17  A    between atoms: _29  and  _31
REMARK   18  A    between atoms: _32  and  _34
REMARK                            x       y       z     vdW  Elec       q    Type
REMARK                         _______ _______ _______ _____ _____    ______ ____
ROOT
ATOM      1  C   UNL     1      -5.034   8.381  23.551  0.00  0.00    +0.175 C 
ENDROOT
BRANCH   1   2
ATOM      2  C   UNL     1      -3.989   9.261  24.251  0.00  0.00    +0.176 C 
ATOM      3  O   UNL     1      -4.327   9.320  25.664  0.00  0.00    -0.332 OA
ATOM      4  C   UNL     1      -3.373  10.036  26.515  0.00  0.00    +0.277 C 
ATOM      5  C   UNL     1      -3.133  11.467  25.974  0.00  0.00    +0.110 C 
ATOM      6  C   UNL     1      -2.801  11.459  24.467  0.00  0.00    +0.143 C 
ATOM      7  C   UNL     1      -3.857  10.684  23.677  0.00  0.00    +0.133 C 
BRANCH   7   8
ATOM      8  N   UNL     1      -3.485  10.609  22.256  0.00  0.00    -0.308 N 
ATOM      9  H   UNL     1      -2.736   9.981  21.997  0.00  0.00    +0.149 HD
ATOM     10  C   UNL     1      -4.070  11.316  21.286  0.00  0.00    +0.210 C 
ATOM     11  C   UNL     1      -5.190  12.282  21.716  0.00  0.00    +0.109 C 
ATOM     12  O   UNL     1      -3.747  11.221  20.101  0.00  0.00    -0.276 OA
ENDBRANCH   7   8
BRANCH   4  13
ATOM     13  C   UNL     1      -2.029   9.281  26.586  0.00  0.00    +0.414 C 
ATOM     14  O   UNL     1      -0.971   9.904  26.662  0.00  0.00    -0.240 OA
ATOM     15  O   UNL     1      -2.004   8.050  26.569  0.00  0.00    -0.240 OA
ENDBRANCH   4  13
BRANCH   4  16
ATOM     16  O   UNL     1      -3.946  10.139  27.844  0.00  0.00    -0.343 OA
ATOM     17  C   UNL     1      -3.894  11.464  28.432  0.00  0.00    +0.198 C 
ENDBRANCH   4  16
BRANCH   6  18
ATOM     18  O   UNL     1      -2.739  12.800  23.980  0.00  0.00    -0.390 OA
ATOM     19  H   UNL     1      -2.561  13.398  24.710  0.00  0.00    +0.210 HD
ENDBRANCH   6  18
ENDBRANCH   1   2
BRANCH   1  20
ATOM     20  O   UNL     1      -4.487   7.830  22.336  0.00  0.00    -0.387 OA
ATOM     21  H   UNL     1      -4.574   8.471  21.627  0.00  0.00    +0.210 HD
ENDBRANCH   1  20
BRANCH   1  22
ATOM     22  C   UNL     1      -6.330   9.152  23.247  0.00  0.00    +0.163 C 
BRANCH  22  23
ATOM     23  O   UNL     1      -7.169   9.226  24.411  0.00  0.00    -0.388 OA
ATOM     24  H   UNL     1      -7.431  10.138  24.559  0.00  0.00    +0.210 HD
ENDBRANCH  22  23
BRANCH  22  25
ATOM     25  C   UNL     1      -7.077   8.464  22.109  0.00  0.00    +0.141 C 
BRANCH  25  28
ATOM     26  C   UNL     1      -6.304   8.761  19.781  0.00  0.00    +0.401 C 
ATOM     27  O   UNL     1      -5.711   7.680  19.741  0.00  0.00    -0.226 OA
ATOM     28  N   UNL     1      -6.964   9.210  20.850  0.00  0.00    -0.279 N 
ATOM     29  H   UNL     1      -7.411  10.114  20.789  0.00  0.00    +0.152 HD
BRANCH  26  30
ATOM     30  O   UNL     1      -6.293   9.603  18.625  0.00  0.00    -0.444 OA
BRANCH  30  31
ATOM     31  C   UNL     1      -5.494   9.001  17.603  0.00  0.00    +0.292 C 
BRANCH  31  33
ATOM     32  N   UNL     1      -3.723   9.728  16.031  0.00  0.00    -0.131 NA
ATOM     33  C   UNL     1      -4.806  10.038  16.811  0.00  0.00    +0.120 A 
ATOM     34  C   UNL     1      -5.072  11.384  16.698  0.00  0.00    +0.137 A 
ATOM     35  N   UNL     1      -4.113  11.836  15.841  0.00  0.00    -0.249 N 
ATOM     36  N   UNL     1      -3.302  10.841  15.446  0.00  0.00    -0.065 NA
BRANCH  35  37
ATOM     37  C   UNL     1      -3.918  13.184  15.355  0.00  0.00    +0.173 C 
BRANCH  37  38
ATOM     38  C   UNL     1      -3.654  13.235  13.856  0.00  0.00    +0.179 C 
BRANCH  38  39
ATOM     39  O   UNL     1      -2.277  13.001  13.566  0.00  0.00    -0.393 OA
ATOM     40  H   UNL     1      -1.816  12.924  14.424  0.00  0.00    +0.209 HD
ENDBRANCH  38  39
ENDBRANCH  37  38
ENDBRANCH  35  37
ENDBRANCH  31  33
ENDBRANCH  30  31
ENDBRANCH  26  30
ENDBRANCH  25  28
ENDBRANCH  22  25
ENDBRANCH   1  22
TORSDOF 16
