REMARK VINA RESULT:    -4.078      4.560      7.513
REMARK INTER + INTRA:         -11.469
REMARK INTER:                  -8.473
REMARK INTRA:                  -2.996
REMARK UNBOUND:                -3.458
REMARK  Name = lig_assembled_43.pdb
REMARK  20 active torsions:
REMARK  status: ('A' for Active; 'I' for Inactive)
REMARK    1  A    between atoms: _2  and  _9
REMARK    2  A    between atoms: _4  and  _18
REMARK    3  A    between atoms: _6  and  _7
REMARK    4  A    between atoms: _6  and  _18
REMARK    5  A    between atoms: _9  and  _10
REMARK    6  A    between atoms: _10  and  _11
REMARK    7  A    between atoms: _11  and  _12
REMARK    8  A    between atoms: _12  and  _13
REMARK    9  A    between atoms: _14  and  _34
REMARK   10  A    between atoms: _16  and  _22
REMARK   11  A    between atoms: _17  and  _21
REMARK   12  A    between atoms: _21  and  _22
REMARK   13  A    between atoms: _24  and  _25
REMARK   14  A    between atoms: _26  and  _27
REMARK   15  A    between atoms: _28  and  _30
REMARK   16  A    between atoms: _30  and  _31
REMARK   17  A    between atoms: _30  and  _32
REMARK   18  A    between atoms: _32  and  _33
REMARK   19  A    between atoms: _32  and  _34
REMARK   20  A    between atoms: _35  and  _37
REMARK                            x       y       z     vdW  Elec       q    Type
REMARK                         _______ _______ _______ _____ _____    ______ ____
ROOT
ATOM      1  C   UNL     1      -2.949  11.925  23.231  0.00  0.00    +0.163 C 
ENDROOT
BRANCH   1   2
ATOM      2  O   UNL     1      -2.278  12.126  24.485  0.00  0.00    -0.388 OA
ATOM      3  H   UNL     1      -2.921  12.116  25.198  0.00  0.00    +0.210 HD
ENDBRANCH   1   2
BRANCH   1   4
ATOM      4  C   UNL     1      -3.817  10.655  23.269  0.00  0.00    +0.175 C 
BRANCH   4   5
ATOM      5  C   UNL     1      -4.026  10.140  24.701  0.00  0.00    +0.176 C 
ATOM      6  O   UNL     1      -2.977   9.174  24.985  0.00  0.00    -0.332 OA
ATOM      7  C   UNL     1      -2.953   8.649  26.354  0.00  0.00    +0.277 C 
ATOM      8  C   UNL     1      -4.332   8.052  26.729  0.00  0.00    +0.110 C 
ATOM      9  C   UNL     1      -5.482   9.032  26.415  0.00  0.00    +0.143 C 
ATOM     10  C   UNL     1      -5.409   9.517  24.966  0.00  0.00    +0.133 C 
BRANCH  10  11
ATOM     11  N   UNL     1      -6.457  10.516  24.704  0.00  0.00    -0.308 N 
ATOM     12  H   UNL     1      -6.408  11.393  25.203  0.00  0.00    +0.149 HD
ATOM     13  C   UNL     1      -7.468  10.339  23.850  0.00  0.00    +0.210 C 
ATOM     14  C   UNL     1      -7.529   8.982  23.125  0.00  0.00    +0.109 C 
ATOM     15  O   UNL     1      -8.324  11.200  23.639  0.00  0.00    -0.276 OA
ENDBRANCH  10  11
BRANCH   7  16
ATOM     16  C   UNL     1      -2.582   9.760  27.359  0.00  0.00    +0.414 C 
ATOM     17  O   UNL     1      -1.856  10.691  27.013  0.00  0.00    -0.240 OA
ATOM     18  O   UNL     1      -3.008   9.725  28.514  0.00  0.00    -0.240 OA
ENDBRANCH   7  16
BRANCH   9  19
ATOM     19  O   UNL     1      -6.737   8.388  26.633  0.00  0.00    -0.390 OA
ATOM     20  H   UNL     1      -7.428   8.864  26.166  0.00  0.00    +0.210 HD
ENDBRANCH   9  19
BRANCH   7  21
ATOM     21  O   UNL     1      -1.965   7.589  26.411  0.00  0.00    -0.343 OA
ATOM     22  C   UNL     1      -2.283   6.503  27.317  0.00  0.00    +0.198 C 
ENDBRANCH   7  21
ENDBRANCH   4   5
BRANCH   4  23
ATOM     23  O   UNL     1      -3.227   9.625  22.452  0.00  0.00    -0.387 OA
ATOM     24  H   UNL     1      -3.116   8.827  22.973  0.00  0.00    +0.210 HD
ENDBRANCH   4  23
ENDBRANCH   1   4
BRANCH   1  25
ATOM     25  C   UNL     1      -3.825  13.131  22.909  0.00  0.00    +0.141 C 
BRANCH  25  28
ATOM     26  C   UNL     1      -5.803  13.451  21.463  0.00  0.00    +0.401 C 
ATOM     27  O   UNL     1      -6.414  14.133  22.289  0.00  0.00    -0.226 OA
ATOM     28  N   UNL     1      -4.590  12.937  21.671  0.00  0.00    -0.279 N 
ATOM     29  H   UNL     1      -4.175  12.383  20.936  0.00  0.00    +0.152 HD
BRANCH  26  30
ATOM     30  O   UNL     1      -6.415  13.179  20.199  0.00  0.00    -0.444 OA
BRANCH  30  31
ATOM     31  C   UNL     1      -7.125  11.940  20.269  0.00  0.00    +0.292 C 
BRANCH  31  33
ATOM     32  N   UNL     1      -5.478  10.100  20.448  0.00  0.00    -0.131 NA
ATOM     33  C   UNL     1      -6.323  10.854  19.676  0.00  0.00    +0.120 A 
ATOM     34  C   UNL     1      -6.252  10.417  18.373  0.00  0.00    +0.137 A 
ATOM     35  N   UNL     1      -5.345   9.402  18.419  0.00  0.00    -0.251 N 
ATOM     36  N   UNL     1      -4.882   9.212  19.664  0.00  0.00    -0.065 NA
BRANCH  35  37
ATOM     37  C   UNL     1      -4.849   8.598  17.321  0.00  0.00    +0.145 C 
BRANCH  37  38
ATOM     38  C   UNL     1      -4.805   9.394  16.020  0.00  0.00    +0.024 C 
BRANCH  38  39
ATOM     39  C   UNL     1      -3.386   9.499  15.458  0.00  0.00    +0.006 C 
BRANCH  39  40
ATOM     40  C   UNL     1      -3.136  10.899  14.892  0.00  0.00    +0.026 C 
BRANCH  40  41
ATOM     41  C   UNL     1      -3.799  11.965  15.714  0.00  0.00    -0.034 C 
ATOM     42  C   UNL     1      -4.039  13.206  15.273  0.00  0.00    +0.004 C 
ENDBRANCH  40  41
ENDBRANCH  39  40
ENDBRANCH  38  39
ENDBRANCH  37  38
ENDBRANCH  35  37
ENDBRANCH  31  33
ENDBRANCH  30  31
ENDBRANCH  26  30
ENDBRANCH  25  28
ENDBRANCH   1  25
TORSDOF 18
