REMARK VINA RESULT:    -4.883      2.398      5.442
REMARK INTER + INTRA:         -11.786
REMARK INTER:                  -8.694
REMARK INTRA:                  -3.093
REMARK UNBOUND:                -3.049
REMARK  Name = lig_assembled_28.pdb
REMARK  17 active torsions:
REMARK  status: ('A' for Active; 'I' for Inactive)
REMARK    1  A    between atoms: _2  and  _9
REMARK    2  A    between atoms: _4  and  _22
REMARK    3  A    between atoms: _6  and  _7
REMARK    4  A    between atoms: _6  and  _22
REMARK    5  A    between atoms: _9  and  _10
REMARK    6  A    between atoms: _18  and  _38
REMARK    7  A    between atoms: _20  and  _26
REMARK    8  A    between atoms: _21  and  _25
REMARK    9  A    between atoms: _25  and  _26
REMARK   10  A    between atoms: _28  and  _29
REMARK   11  A    between atoms: _30  and  _31
REMARK   12  A    between atoms: _32  and  _34
REMARK   13  A    between atoms: _34  and  _35
REMARK   14  A    between atoms: _34  and  _36
REMARK   15  A    between atoms: _36  and  _37
REMARK   16  A    between atoms: _36  and  _38
REMARK   17  A    between atoms: _39  and  _41
REMARK                            x       y       z     vdW  Elec       q    Type
REMARK                         _______ _______ _______ _____ _____    ______ ____
ROOT
ATOM      1  C   UNL     1      -4.518  12.201  25.938  0.00  0.00    +0.163 C 
ENDROOT
BRANCH   1   2
ATOM      2  O   UNL     1      -5.216  11.034  25.474  0.00  0.00    -0.388 OA
ATOM      3  H   UNL     1      -4.582  10.353  25.239  0.00  0.00    +0.210 HD
ENDBRANCH   1   2
BRANCH   1   4
ATOM      4  C   UNL     1      -3.053  12.134  25.520  0.00  0.00    +0.141 C 
BRANCH   4   7
ATOM      5  C   UNL     1      -2.984  11.514  23.129  0.00  0.00    +0.401 C 
ATOM      6  O   UNL     1      -3.229  10.323  23.334  0.00  0.00    -0.226 OA
ATOM      7  N   UNL     1      -2.877  12.429  24.093  0.00  0.00    -0.279 N 
ATOM      8  H   UNL     1      -2.664  13.380  23.826  0.00  0.00    +0.152 HD
BRANCH   5   9
ATOM      9  O   UNL     1      -2.794  11.962  21.785  0.00  0.00    -0.444 OA
BRANCH   9  10
ATOM     10  C   UNL     1      -4.065  12.231  21.187  0.00  0.00    +0.292 C 
BRANCH  10  12
ATOM     11  N   UNL     1      -4.104  14.555  22.049  0.00  0.00    -0.131 NA
ATOM     12  C   UNL     1      -4.731  13.350  21.879  0.00  0.00    +0.120 A 
ATOM     13  C   UNL     1      -5.999  13.424  22.410  0.00  0.00    +0.137 A 
ATOM     14  N   UNL     1      -6.121  14.727  22.801  0.00  0.00    -0.247 N 
ATOM     15  N   UNL     1      -4.961  15.388  22.626  0.00  0.00    -0.065 NA
BRANCH  14  16
ATOM     16  C   UNL     1      -7.288  15.469  23.258  0.00  0.00    +0.180 C 
BRANCH  16  17
ATOM     17  C   UNL     1      -7.147  16.020  24.658  0.00  0.00    -0.022 A 
ATOM     18  C   UNL     1      -7.132  15.148  25.762  0.00  0.00    +0.055 A 
ATOM     19  C   UNL     1      -6.885  15.686  27.007  0.00  0.00    +0.167 A 
ATOM     20  O   UNL     1      -6.781  14.982  28.167  0.00  0.00    -0.453 OA
ATOM     21  C   UNL     1      -6.399  16.030  29.082  0.00  0.00    +0.466 C 
ATOM     22  O   UNL     1      -6.429  17.346  28.490  0.00  0.00    -0.453 OA
ATOM     23  C   UNL     1      -6.687  17.031  27.192  0.00  0.00    +0.166 A 
ATOM     24  C   UNL     1      -6.730  17.921  26.140  0.00  0.00    +0.050 A 
ATOM     25  C   UNL     1      -6.955  17.406  24.860  0.00  0.00    +0.009 A 
ENDBRANCH  16  17
ENDBRANCH  14  16
ENDBRANCH  10  12
ENDBRANCH   9  10
ENDBRANCH   5   9
ENDBRANCH   4   7
ENDBRANCH   1   4
BRANCH   1  26
ATOM     26  C   UNL     1      -4.610  12.324  27.469  0.00  0.00    +0.175 C 
BRANCH  26  27
ATOM     27  C   UNL     1      -3.765  11.261  28.186  0.00  0.00    +0.176 C 
ATOM     28  O   UNL     1      -4.320   9.956  27.863  0.00  0.00    -0.332 OA
ATOM     29  C   UNL     1      -3.573   8.804  28.378  0.00  0.00    +0.277 C 
ATOM     30  C   UNL     1      -3.380   8.926  29.910  0.00  0.00    +0.110 C 
ATOM     31  C   UNL     1      -2.821  10.310  30.305  0.00  0.00    +0.143 C 
ATOM     32  C   UNL     1      -3.672  11.434  29.714  0.00  0.00    +0.133 C 
BRANCH  32  33
ATOM     33  N   UNL     1      -3.081  12.745  30.024  0.00  0.00    -0.308 N 
ATOM     34  H   UNL     1      -2.147  12.934  29.687  0.00  0.00    +0.149 HD
ATOM     35  C   UNL     1      -3.697  13.702  30.723  0.00  0.00    +0.210 C 
ATOM     36  C   UNL     1      -5.108  13.374  31.246  0.00  0.00    +0.109 C 
ATOM     37  O   UNL     1      -3.183  14.797  30.955  0.00  0.00    -0.276 OA
ENDBRANCH  32  33
BRANCH  29  38
ATOM     38  C   UNL     1      -2.196   8.694  27.692  0.00  0.00    +0.414 C 
ATOM     39  O   UNL     1      -1.192   8.435  28.354  0.00  0.00    -0.240 OA
ATOM     40  O   UNL     1      -2.089   8.864  26.477  0.00  0.00    -0.240 OA
ENDBRANCH  29  38
BRANCH  29  41
ATOM     41  O   UNL     1      -4.350   7.609  28.109  0.00  0.00    -0.343 OA
ATOM     42  C   UNL     1      -5.499   7.807  27.247  0.00  0.00    +0.198 C 
ENDBRANCH  29  41
BRANCH  31  43
ATOM     43  O   UNL     1      -2.802  10.433  31.728  0.00  0.00    -0.390 OA
ATOM     44  H   UNL     1      -1.956  10.792  32.007  0.00  0.00    +0.210 HD
ENDBRANCH  31  43
ENDBRANCH  26  27
BRANCH  26  45
ATOM     45  O   UNL     1      -5.985  12.234  27.893  0.00  0.00    -0.387 OA
ATOM     46  H   UNL     1      -6.044  12.422  28.833  0.00  0.00    +0.210 HD
ENDBRANCH  26  45
ENDBRANCH   1  26
TORSDOF 15
