REMARK VINA RESULT:    -4.775      2.379      7.025
REMARK INTER + INTRA:         -11.413
REMARK INTER:                  -6.730
REMARK INTRA:                  -4.683
REMARK UNBOUND:                -2.869
REMARK  Name = lig_assembled_71.pdb
REMARK  17 active torsions:
REMARK  status: ('A' for Active; 'I' for Inactive)
REMARK    1  A    between atoms: _2  and  _12
REMARK    2  A    between atoms: _7  and  _22
REMARK    3  A    between atoms: _9  and  _10
REMARK    4  A    between atoms: _9  and  _22
REMARK    5  A    between atoms: _12  and  _13
REMARK    6  A    between atoms: _18  and  _38
REMARK    7  A    between atoms: _20  and  _26
REMARK    8  A    between atoms: _21  and  _25
REMARK    9  A    between atoms: _25  and  _26
REMARK   10  A    between atoms: _28  and  _29
REMARK   11  A    between atoms: _30  and  _31
REMARK   12  A    between atoms: _32  and  _34
REMARK   13  A    between atoms: _34  and  _35
REMARK   14  A    between atoms: _34  and  _36
REMARK   15  A    between atoms: _36  and  _37
REMARK   16  A    between atoms: _36  and  _38
REMARK   17  A    between atoms: _39  and  _41
REMARK                            x       y       z     vdW  Elec       q    Type
REMARK                         _______ _______ _______ _____ _____    ______ ____
ROOT
ATOM      1  C   UNL     1      -4.119  12.154  29.052  0.00  0.00    +0.163 C 
ENDROOT
BRANCH   1   2
ATOM      2  O   UNL     1      -2.944  12.039  28.234  0.00  0.00    -0.388 OA
ATOM      3  H   UNL     1      -3.063  12.547  27.428  0.00  0.00    +0.210 HD
ENDBRANCH   1   2
BRANCH   1   4
ATOM      4  C   UNL     1      -4.169  11.010  30.059  0.00  0.00    +0.141 C 
BRANCH   4   7
ATOM      5  C   UNL     1      -3.922   8.856  28.873  0.00  0.00    +0.401 C 
ATOM      6  O   UNL     1      -2.698   8.949  28.763  0.00  0.00    -0.226 OA
ATOM      7  N   UNL     1      -4.690   9.775  29.459  0.00  0.00    -0.279 N 
ATOM      8  H   UNL     1      -5.687   9.614  29.492  0.00  0.00    +0.152 HD
BRANCH   5   9
ATOM      9  O   UNL     1      -4.581   7.702  28.345  0.00  0.00    -0.444 OA
BRANCH   9  10
ATOM     10  C   UNL     1      -3.650   6.924  27.589  0.00  0.00    +0.292 C 
BRANCH  10  12
ATOM     11  N   UNL     1      -3.271   8.156  25.467  0.00  0.00    -0.131 NA
ATOM     12  C   UNL     1      -3.867   7.123  26.144  0.00  0.00    +0.120 A 
ATOM     13  C   UNL     1      -4.628   6.392  25.263  0.00  0.00    +0.137 A 
ATOM     14  N   UNL     1      -4.470   7.035  24.070  0.00  0.00    -0.242 N 
ATOM     15  N   UNL     1      -3.641   8.087  24.194  0.00  0.00    -0.065 NA
BRANCH  14  16
ATOM     16  C   UNL     1      -4.968   6.655  22.763  0.00  0.00    +0.241 C 
BRANCH  16  17
ATOM     17  C   UNL     1      -5.614   7.815  22.052  0.00  0.00    +0.241 C 
ATOM     18  O   UNL     1      -6.828   7.821  21.859  0.00  0.00    -0.273 OA
ATOM     19  N   UNL     1      -4.730   8.772  21.599  0.00  0.00    -0.253 N 
ATOM     20  H   UNL     1      -3.733   8.627  21.602  0.00  0.00    +0.158 HD
ATOM     21  C   UNL     1      -5.117   9.934  20.940  0.00  0.00    +0.221 A 
ATOM     22  N   UNL     1      -4.130  10.598  20.320  0.00  0.00    -0.223 NA
ATOM     23  C   UNL     1      -4.499  11.687  19.613  0.00  0.00    +0.116 A 
ATOM     24  C   UNL     1      -5.793  12.143  19.529  0.00  0.00    +0.039 A 
ATOM     25  C   UNL     1      -6.714  11.418  20.237  0.00  0.00    +0.116 A 
ATOM     26  N   UNL     1      -6.396  10.321  20.941  0.00  0.00    -0.223 NA
ENDBRANCH  16  17
ENDBRANCH  14  16
ENDBRANCH  10  12
ENDBRANCH   9  10
ENDBRANCH   5   9
ENDBRANCH   4   7
ENDBRANCH   1   4
BRANCH   1  27
ATOM     27  C   UNL     1      -5.393  12.136  28.190  0.00  0.00    +0.175 C 
BRANCH  27  28
ATOM     28  C   UNL     1      -5.097  11.765  26.729  0.00  0.00    +0.176 C 
ATOM     29  O   UNL     1      -4.771  12.989  26.014  0.00  0.00    -0.332 OA
ATOM     30  C   UNL     1      -4.355  12.817  24.619  0.00  0.00    +0.277 C 
ATOM     31  C   UNL     1      -5.422  12.019  23.831  0.00  0.00    +0.110 C 
ATOM     32  C   UNL     1      -5.824  10.724  24.568  0.00  0.00    +0.143 C 
ATOM     33  C   UNL     1      -6.237  11.018  26.010  0.00  0.00    +0.133 C 
BRANCH  33  34
ATOM     34  N   UNL     1      -6.534   9.768  26.727  0.00  0.00    -0.308 N 
ATOM     35  H   UNL     1      -5.801   9.076  26.791  0.00  0.00    +0.149 HD
ATOM     36  C   UNL     1      -7.709   9.489  27.298  0.00  0.00    +0.210 C 
ATOM     37  C   UNL     1      -8.813  10.553  27.159  0.00  0.00    +0.109 C 
ATOM     38  O   UNL     1      -7.925   8.439  27.904  0.00  0.00    -0.276 OA
ENDBRANCH  33  34
BRANCH  30  39
ATOM     39  C   UNL     1      -3.000  12.084  24.540  0.00  0.00    +0.414 C 
ATOM     40  O   UNL     1      -2.160  12.234  25.427  0.00  0.00    -0.240 OA
ATOM     41  O   UNL     1      -2.746  11.343  23.589  0.00  0.00    -0.240 OA
ENDBRANCH  30  39
BRANCH  30  42
ATOM     42  O   UNL     1      -4.234  14.133  24.021  0.00  0.00    -0.343 OA
ATOM     43  C   UNL     1      -4.782  14.251  22.684  0.00  0.00    +0.198 C 
ENDBRANCH  30  42
BRANCH  32  44
ATOM     44  O   UNL     1      -6.913  10.099  23.885  0.00  0.00    -0.390 OA
ATOM     45  H   UNL     1      -7.091  10.571  23.068  0.00  0.00    +0.210 HD
ENDBRANCH  32  44
ENDBRANCH  27  28
BRANCH  27  46
ATOM     46  O   UNL     1      -6.055  13.415  28.253  0.00  0.00    -0.387 OA
ATOM     47  H   UNL     1      -5.704  13.920  28.991  0.00  0.00    +0.210 HD
ENDBRANCH  27  46
ENDBRANCH   1  27
TORSDOF 15
