REMARK VINA RESULT:    -4.714      2.958      5.503
REMARK INTER + INTRA:         -10.664
REMARK INTER:                  -7.498
REMARK INTRA:                  -3.166
REMARK UNBOUND:                -2.505
REMARK  Name = lig_assembled_3.pdb
REMARK  16 active torsions:
REMARK  status: ('A' for Active; 'I' for Inactive)
REMARK    1  A    between atoms: _2  and  _9
REMARK    2  A    between atoms: _4  and  _18
REMARK    3  A    between atoms: _6  and  _7
REMARK    4  A    between atoms: _6  and  _18
REMARK    5  A    between atoms: _14  and  _34
REMARK    6  A    between atoms: _16  and  _22
REMARK    7  A    between atoms: _17  and  _21
REMARK    8  A    between atoms: _21  and  _22
REMARK    9  A    between atoms: _24  and  _25
REMARK   10  A    between atoms: _26  and  _27
REMARK   11  A    between atoms: _28  and  _30
REMARK   12  A    between atoms: _30  and  _31
REMARK   13  A    between atoms: _30  and  _32
REMARK   14  A    between atoms: _32  and  _33
REMARK   15  A    between atoms: _32  and  _34
REMARK   16  A    between atoms: _35  and  _37
REMARK                            x       y       z     vdW  Elec       q    Type
REMARK                         _______ _______ _______ _____ _____    ______ ____
ROOT
ATOM      1  C   UNL     1      -6.144   8.353  24.371  0.00  0.00    +0.163 C 
ENDROOT
BRANCH   1   2
ATOM      2  O   UNL     1      -5.989   9.003  25.643  0.00  0.00    -0.388 OA
ATOM      3  H   UNL     1      -6.854   9.160  26.031  0.00  0.00    +0.210 HD
ENDBRANCH   1   2
BRANCH   1   4
ATOM      4  C   UNL     1      -4.984   7.393  24.131  0.00  0.00    +0.141 C 
BRANCH   4   7
ATOM      5  C   UNL     1      -2.960   6.680  25.356  0.00  0.00    +0.401 C 
ATOM      6  O   UNL     1      -2.908   5.573  24.816  0.00  0.00    -0.226 OA
ATOM      7  N   UNL     1      -3.900   7.591  25.101  0.00  0.00    -0.279 N 
ATOM      8  H   UNL     1      -3.864   8.468  25.602  0.00  0.00    +0.152 HD
BRANCH   5   9
ATOM      9  O   UNL     1      -1.965   7.029  26.322  0.00  0.00    -0.444 OA
BRANCH   9  10
ATOM     10  C   UNL     1      -2.467   6.778  27.638  0.00  0.00    +0.292 C 
BRANCH  10  12
ATOM     11  N   UNL     1      -4.385   8.283  28.059  0.00  0.00    -0.131 NA
ATOM     12  C   UNL     1      -3.057   8.007  28.204  0.00  0.00    +0.121 A 
ATOM     13  C   UNL     1      -2.463   9.016  28.926  0.00  0.00    +0.143 A 
ATOM     14  N   UNL     1      -3.484   9.888  29.229  0.00  0.00    -0.220 N 
ATOM     15  N   UNL     1      -4.637   9.429  28.678  0.00  0.00    -0.060 NA
BRANCH  14  16
ATOM     16  C   UNL     1      -3.438  11.078  29.999  0.00  0.00    +0.067 A 
ATOM     17  C   UNL     1      -2.863  11.086  31.278  0.00  0.00    +0.028 A 
ATOM     18  C   UNL     1      -2.855  12.262  32.033  0.00  0.00    +0.002 A 
ATOM     19  C   UNL     1      -3.414  13.430  31.519  0.00  0.00    +0.000 A 
ATOM     20  C   UNL     1      -3.979  13.431  30.245  0.00  0.00    +0.002 A 
ATOM     21  C   UNL     1      -3.992  12.259  29.484  0.00  0.00    +0.028 A 
ENDBRANCH  14  16
ENDBRANCH  10  12
ENDBRANCH   9  10
ENDBRANCH   5   9
ENDBRANCH   4   7
ENDBRANCH   1   4
BRANCH   1  22
ATOM     22  C   UNL     1      -6.204   9.383  23.230  0.00  0.00    +0.175 C 
BRANCH  22  23
ATOM     23  C   UNL     1      -5.053  10.397  23.306  0.00  0.00    +0.176 C 
ATOM     24  O   UNL     1      -5.362  11.345  24.365  0.00  0.00    -0.332 OA
ATOM     25  C   UNL     1      -4.318  12.333  24.656  0.00  0.00    +0.277 C 
ATOM     26  C   UNL     1      -3.922  13.097  23.369  0.00  0.00    +0.110 C 
ATOM     27  C   UNL     1      -3.615  12.131  22.205  0.00  0.00    +0.143 C 
ATOM     28  C   UNL     1      -4.765  11.146  21.992  0.00  0.00    +0.133 C 
BRANCH  28  29
ATOM     29  N   UNL     1      -4.424  10.176  20.939  0.00  0.00    -0.308 N 
ATOM     30  H   UNL     1      -3.601   9.605  21.072  0.00  0.00    +0.149 HD
ATOM     31  C   UNL     1      -5.131  10.001  19.819  0.00  0.00    +0.210 C 
ATOM     32  C   UNL     1      -6.364  10.905  19.634  0.00  0.00    +0.109 C 
ATOM     33  O   UNL     1      -4.830   9.171  18.961  0.00  0.00    -0.276 OA
ENDBRANCH  28  29
BRANCH  25  34
ATOM     34  C   UNL     1      -3.071  11.650  25.255  0.00  0.00    +0.414 C 
ATOM     35  O   UNL     1      -1.991  12.240  25.277  0.00  0.00    -0.240 OA
ATOM     36  O   UNL     1      -3.144  10.510  25.716  0.00  0.00    -0.240 OA
ENDBRANCH  25  34
BRANCH  27  37
ATOM     37  O   UNL     1      -3.404  12.875  21.004  0.00  0.00    -0.390 OA
ATOM     38  H   UNL     1      -2.466  12.897  20.802  0.00  0.00    +0.210 HD
ENDBRANCH  27  37
BRANCH  25  39
ATOM     39  O   UNL     1      -4.856  13.287  25.607  0.00  0.00    -0.343 OA
ATOM     40  C   UNL     1      -6.283  13.180  25.842  0.00  0.00    +0.198 C 
ENDBRANCH  25  39
ENDBRANCH  22  23
BRANCH  22  41
ATOM     41  O   UNL     1      -7.472  10.069  23.245  0.00  0.00    -0.387 OA
ATOM     42  H   UNL     1      -8.062   9.665  22.605  0.00  0.00    +0.210 HD
ENDBRANCH  22  41
ENDBRANCH   1  22
TORSDOF 14
