REMARK VINA RESULT:    -5.113      3.166      7.715
REMARK INTER + INTRA:         -11.942
REMARK INTER:                  -8.849
REMARK INTRA:                  -3.093
REMARK UNBOUND:                -3.093
REMARK  Name = lig_assembled_80.pdb
REMARK  16 active torsions:
REMARK  status: ('A' for Active; 'I' for Inactive)
REMARK    1  A    between atoms: _2  and  _10
REMARK    2  A    between atoms: _5  and  _24
REMARK    3  A    between atoms: _7  and  _8
REMARK    4  A    between atoms: _7  and  _24
REMARK    5  A    between atoms: _20  and  _40
REMARK    6  A    between atoms: _22  and  _28
REMARK    7  A    between atoms: _23  and  _27
REMARK    8  A    between atoms: _27  and  _28
REMARK    9  A    between atoms: _30  and  _31
REMARK   10  A    between atoms: _32  and  _33
REMARK   11  A    between atoms: _34  and  _36
REMARK   12  A    between atoms: _36  and  _37
REMARK   13  A    between atoms: _36  and  _38
REMARK   14  A    between atoms: _38  and  _39
REMARK   15  A    between atoms: _38  and  _40
REMARK   16  A    between atoms: _41  and  _43
REMARK                            x       y       z     vdW  Elec       q    Type
REMARK                         _______ _______ _______ _____ _____    ______ ____
ROOT
ATOM      1  C   UNL     1      -2.806   8.740  30.057  0.00  0.00    +0.141 C 
ENDROOT
BRANCH   1   4
ATOM      2  C   UNL     1      -2.005   8.311  27.759  0.00  0.00    +0.401 C 
ATOM      3  O   UNL     1      -1.665   7.149  27.994  0.00  0.00    -0.226 OA
ATOM      4  N   UNL     1      -2.541   9.128  28.666  0.00  0.00    -0.279 N 
ATOM      5  H   UNL     1      -2.778  10.068  28.380  0.00  0.00    +0.152 HD
BRANCH   2   6
ATOM      6  O   UNL     1      -1.818   8.836  26.442  0.00  0.00    -0.444 OA
BRANCH   6   7
ATOM      7  C   UNL     1      -1.793  10.265  26.497  0.00  0.00    +0.292 C 
BRANCH   7   9
ATOM      8  N   UNL     1      -3.222  10.039  24.502  0.00  0.00    -0.131 NA
ATOM      9  C   UNL     1      -2.709  10.835  25.489  0.00  0.00    +0.120 A 
ATOM     10  C   UNL     1      -3.192  12.117  25.342  0.00  0.00    +0.138 A 
ATOM     11  N   UNL     1      -3.954  12.049  24.206  0.00  0.00    -0.239 N 
ATOM     12  N   UNL     1      -3.996  10.786  23.727  0.00  0.00    -0.065 NA
BRANCH  11  13
ATOM     13  C   UNL     1      -4.816  13.065  23.592  0.00  0.00    +0.195 C 
ATOM     14  C   UNL     1      -5.412  13.925  24.699  0.00  0.00    +0.041 C 
ATOM     15  C   UNL     1      -6.528  14.800  24.168  0.00  0.00    +0.039 C 
ATOM     16  C   UNL     1      -5.957  16.058  23.593  0.00  0.00    -0.026 A 
ATOM     17  C   UNL     1      -5.124  16.061  22.472  0.00  0.00    +0.037 A 
ATOM     18  C   UNL     1      -4.727  17.289  21.917  0.00  0.00    +0.023 A 
ATOM     19  C   UNL     1      -5.051  18.497  22.532  0.00  0.00    +0.002 A 
ATOM     20  C   UNL     1      -5.817  18.492  23.689  0.00  0.00    +0.000 A 
ATOM     21  N   UNL     1      -4.556  14.925  21.869  0.00  0.00    -0.284 N 
ATOM     22  H   UNL     1      -3.996  15.118  21.044  0.00  0.00    +0.155 HD
ATOM     23  C   UNL     1      -6.288  17.284  24.200  0.00  0.00    +0.005 A 
ATOM     24  C   UNL     1      -4.112  13.764  22.435  0.00  0.00    +0.242 C 
ATOM     25  O   UNL     1      -3.144  13.250  21.861  0.00  0.00    -0.273 OA
ENDBRANCH  11  13
ENDBRANCH   7   9
ENDBRANCH   6   7
ENDBRANCH   2   6
ENDBRANCH   1   4
BRANCH   1  26
ATOM     26  C   UNL     1      -4.214   9.126  30.496  0.00  0.00    +0.163 C 
BRANCH  26  27
ATOM     27  O   UNL     1      -4.624   8.309  31.605  0.00  0.00    -0.388 OA
ATOM     28  H   UNL     1      -5.567   8.419  31.753  0.00  0.00    +0.210 HD
ENDBRANCH  26  27
BRANCH  26  29
ATOM     29  C   UNL     1      -4.244  10.618  30.872  0.00  0.00    +0.175 C 
BRANCH  29  30
ATOM     30  C   UNL     1      -5.334  11.384  30.109  0.00  0.00    +0.176 C 
ATOM     31  O   UNL     1      -5.403  10.841  28.762  0.00  0.00    -0.332 OA
ATOM     32  C   UNL     1      -6.468  11.383  27.913  0.00  0.00    +0.277 C 
ATOM     33  C   UNL     1      -6.377  12.928  27.851  0.00  0.00    +0.110 C 
ATOM     34  C   UNL     1      -6.270  13.549  29.259  0.00  0.00    +0.143 C 
ATOM     35  C   UNL     1      -5.133  12.910  30.056  0.00  0.00    +0.133 C 
BRANCH  35  36
ATOM     36  N   UNL     1      -5.097  13.448  31.425  0.00  0.00    -0.308 N 
ATOM     37  H   UNL     1      -5.846  13.191  32.053  0.00  0.00    +0.149 HD
ATOM     38  C   UNL     1      -4.140  14.255  31.892  0.00  0.00    +0.210 C 
ATOM     39  C   UNL     1      -3.027  14.649  30.903  0.00  0.00    +0.109 C 
ATOM     40  O   UNL     1      -4.128  14.678  33.048  0.00  0.00    -0.276 OA
ENDBRANCH  35  36
BRANCH  32  41
ATOM     41  C   UNL     1      -7.855  10.969  28.445  0.00  0.00    +0.414 C 
ATOM     42  O   UNL     1      -8.839  11.677  28.230  0.00  0.00    -0.240 OA
ATOM     43  O   UNL     1      -7.992   9.929  29.090  0.00  0.00    -0.240 OA
ENDBRANCH  32  41
BRANCH  34  44
ATOM     44  O   UNL     1      -6.037  14.954  29.150  0.00  0.00    -0.390 OA
ATOM     45  H   UNL     1      -5.098  15.131  29.241  0.00  0.00    +0.210 HD
ENDBRANCH  34  44
BRANCH  32  46
ATOM     46  O   UNL     1      -6.283  10.860  26.572  0.00  0.00    -0.343 OA
ATOM     47  C   UNL     1      -6.100   9.424  26.495  0.00  0.00    +0.198 C 
ENDBRANCH  32  46
ENDBRANCH  29  30
BRANCH  29  48
ATOM     48  O   UNL     1      -2.955  11.217  30.632  0.00  0.00    -0.387 OA
ATOM     49  H   UNL     1      -2.794  11.902  31.284  0.00  0.00    +0.210 HD
ENDBRANCH  29  48
ENDBRANCH  26  29
ENDBRANCH   1  26
TORSDOF 14
