REMARK VINA RESULT:    -4.739      2.724      7.921
REMARK INTER + INTRA:         -12.642
REMARK INTER:                  -8.494
REMARK INTRA:                  -4.147
REMARK UNBOUND:                -3.885
REMARK  Name = lig_assembled_79.pdb
REMARK  20 active torsions:
REMARK  status: ('A' for Active; 'I' for Inactive)
REMARK    1  A    between atoms: _2  and  _10
REMARK    2  A    between atoms: _5  and  _26
REMARK    3  A    between atoms: _7  and  _8
REMARK    4  A    between atoms: _7  and  _26
REMARK    5  A    between atoms: _10  and  _11
REMARK    6  A    between atoms: _10  and  _12
REMARK    7  A    between atoms: _10  and  _13
REMARK    8  A    between atoms: _13  and  _14
REMARK    9  A    between atoms: _22  and  _42
REMARK   10  A    between atoms: _24  and  _30
REMARK   11  A    between atoms: _25  and  _29
REMARK   12  A    between atoms: _29  and  _30
REMARK   13  A    between atoms: _32  and  _33
REMARK   14  A    between atoms: _34  and  _35
REMARK   15  A    between atoms: _36  and  _38
REMARK   16  A    between atoms: _38  and  _39
REMARK   17  A    between atoms: _38  and  _40
REMARK   18  A    between atoms: _40  and  _41
REMARK   19  A    between atoms: _40  and  _42
REMARK   20  A    between atoms: _43  and  _45
REMARK                            x       y       z     vdW  Elec       q    Type
REMARK                         _______ _______ _______ _____ _____    ______ ____
ROOT
ATOM      1  C   UNL     1      -2.243   7.164  26.419  0.00  0.00    +0.401 C 
ATOM      2  O   UNL     1      -1.623   6.462  25.617  0.00  0.00    -0.226 OA
ATOM      3  N   UNL     1      -3.431   7.714  26.165  0.00  0.00    -0.279 N 
ATOM      4  H   UNL     1      -3.866   8.267  26.890  0.00  0.00    +0.152 HD
ENDROOT
BRANCH   3   5
ATOM      5  C   UNL     1      -4.143   7.561  24.890  0.00  0.00    +0.141 C 
BRANCH   5   6
ATOM      6  C   UNL     1      -5.586   8.047  24.982  0.00  0.00    +0.163 C 
BRANCH   6   7
ATOM      7  O   UNL     1      -5.904   8.388  26.342  0.00  0.00    -0.388 OA
ATOM      8  H   UNL     1      -5.094   8.459  26.852  0.00  0.00    +0.210 HD
ENDBRANCH   6   7
BRANCH   6   9
ATOM      9  C   UNL     1      -5.781   9.257  24.052  0.00  0.00    +0.175 C 
BRANCH   9  10
ATOM     10  C   UNL     1      -4.755  10.367  24.324  0.00  0.00    +0.176 C 
ATOM     11  O   UNL     1      -5.170  11.074  25.525  0.00  0.00    -0.332 OA
ATOM     12  C   UNL     1      -4.247  12.109  26.001  0.00  0.00    +0.277 C 
ATOM     13  C   UNL     1      -3.944  13.125  24.872  0.00  0.00    +0.110 C 
ATOM     14  C   UNL     1      -3.529  12.418  23.565  0.00  0.00    +0.143 C 
ATOM     15  C   UNL     1      -4.558  11.360  23.164  0.00  0.00    +0.133 C 
BRANCH  15  16
ATOM     16  N   UNL     1      -4.110  10.633  21.965  0.00  0.00    -0.308 N 
ATOM     17  H   UNL     1      -3.243  10.118  22.023  0.00  0.00    +0.149 HD
ATOM     18  C   UNL     1      -4.773  10.611  20.806  0.00  0.00    +0.210 C 
ATOM     19  C   UNL     1      -6.077  11.428  20.742  0.00  0.00    +0.109 C 
ATOM     20  O   UNL     1      -4.381   9.982  19.823  0.00  0.00    -0.276 OA
ENDBRANCH  15  16
BRANCH  12  21
ATOM     21  C   UNL     1      -2.928  11.480  26.495  0.00  0.00    +0.414 C 
ATOM     22  O   UNL     1      -1.847  11.892  26.075  0.00  0.00    -0.240 OA
ATOM     23  O   UNL     1      -2.943  10.560  27.314  0.00  0.00    -0.240 OA
ENDBRANCH  12  21
BRANCH  14  24
ATOM     24  O   UNL     1      -3.408  13.378  22.515  0.00  0.00    -0.390 OA
ATOM     25  H   UNL     1      -3.263  12.925  21.681  0.00  0.00    +0.210 HD
ENDBRANCH  14  24
BRANCH  12  26
ATOM     26  O   UNL     1      -4.890  12.816  27.093  0.00  0.00    -0.343 OA
ATOM     27  C   UNL     1      -6.319  12.599  27.205  0.00  0.00    +0.198 C 
ENDBRANCH  12  26
ENDBRANCH   9  10
BRANCH   9  28
ATOM     28  O   UNL     1      -7.120   9.775  24.186  0.00  0.00    -0.387 OA
ATOM     29  H   UNL     1      -7.650   9.490  23.437  0.00  0.00    +0.210 HD
ENDBRANCH   9  28
ENDBRANCH   6   9
ENDBRANCH   5   6
ENDBRANCH   3   5
BRANCH   1  30
ATOM     30  O   UNL     1      -1.676   7.415  27.707  0.00  0.00    -0.444 OA
BRANCH  30  31
ATOM     31  C   UNL     1      -2.286   6.555  28.674  0.00  0.00    +0.292 C 
BRANCH  31  33
ATOM     32  N   UNL     1      -4.486   7.628  28.981  0.00  0.00    -0.131 NA
ATOM     33  C   UNL     1      -3.258   7.312  29.484  0.00  0.00    +0.120 A 
ATOM     34  C   UNL     1      -3.151   7.812  30.762  0.00  0.00    +0.138 A 
ATOM     35  N   UNL     1      -4.381   8.348  31.025  0.00  0.00    -0.238 N 
ATOM     36  N   UNL     1      -5.149   8.299  29.908  0.00  0.00    -0.064 NA
BRANCH  35  37
ATOM     37  C   UNL     1      -4.884   9.105  32.209  0.00  0.00    +0.122 C 
ATOM     38  C   UNL     1      -4.843   8.126  33.406  0.00  0.00    +0.044 C 
ATOM     39  C   UNL     1      -6.296   9.577  31.809  0.00  0.00    +0.044 C 
BRANCH  37  40
ATOM     40  C   UNL     1      -4.009  10.321  32.579  0.00  0.00    +0.192 C 
ATOM     41  O   UNL     1      -3.346  10.317  33.621  0.00  0.00    -0.289 OA
BRANCH  40  42
ATOM     42  C   UNL     1      -3.934  11.546  31.730  0.00  0.00    +0.045 A 
ATOM     43  C   UNL     1      -3.443  11.460  30.433  0.00  0.00    +0.095 A 
ATOM     44  N   UNL     1      -3.440  12.695  29.859  0.00  0.00    -0.360 N 
ATOM     45  H   UNL     1      -3.121  12.905  28.923  0.00  0.00    +0.165 HD
ATOM     46  C   UNL     1      -3.925  13.623  30.745  0.00  0.00    +0.047 A 
ATOM     47  C   UNL     1      -4.082  15.006  30.569  0.00  0.00    +0.026 A 
ATOM     48  C   UNL     1      -4.596  15.751  31.630  0.00  0.00    +0.002 A 
ATOM     49  C   UNL     1      -4.942  15.132  32.820  0.00  0.00    +0.001 A 
ATOM     50  C   UNL     1      -4.778  13.750  32.975  0.00  0.00    +0.011 A 
ATOM     51  C   UNL     1      -4.255  12.949  31.928  0.00  0.00    +0.010 A 
ENDBRANCH  40  42
ENDBRANCH  37  40
ENDBRANCH  35  37
ENDBRANCH  31  33
ENDBRANCH  30  31
ENDBRANCH   1  30
TORSDOF 16
