REMARK VINA RESULT:    -5.384      2.309      5.289
REMARK INTER + INTRA:         -11.605
REMARK INTER:                  -8.213
REMARK INTRA:                  -3.392
REMARK UNBOUND:                -2.287
REMARK  Name = lig_assembled_52.pdb
REMARK  16 active torsions:
REMARK  status: ('A' for Active; 'I' for Inactive)
REMARK    1  A    between atoms: _2  and  _10
REMARK    2  A    between atoms: _5  and  _18
REMARK    3  A    between atoms: _7  and  _8
REMARK    4  A    between atoms: _7  and  _18
REMARK    5  A    between atoms: _14  and  _34
REMARK    6  A    between atoms: _16  and  _22
REMARK    7  A    between atoms: _17  and  _21
REMARK    8  A    between atoms: _21  and  _22
REMARK    9  A    between atoms: _24  and  _25
REMARK   10  A    between atoms: _26  and  _27
REMARK   11  A    between atoms: _28  and  _30
REMARK   12  A    between atoms: _30  and  _31
REMARK   13  A    between atoms: _30  and  _32
REMARK   14  A    between atoms: _32  and  _33
REMARK   15  A    between atoms: _32  and  _34
REMARK   16  A    between atoms: _35  and  _37
REMARK                            x       y       z     vdW  Elec       q    Type
REMARK                         _______ _______ _______ _____ _____    ______ ____
ROOT
ATOM      1  C   UNL     1      -3.026  11.405  23.463  0.00  0.00    +0.163 C 
ENDROOT
BRANCH   1   2
ATOM      2  O   UNL     1      -2.335  11.728  24.681  0.00  0.00    -0.388 OA
ATOM      3  H   UNL     1      -2.673  11.184  25.396  0.00  0.00    +0.210 HD
ENDBRANCH   1   2
BRANCH   1   4
ATOM      4  C   UNL     1      -3.888  12.583  23.024  0.00  0.00    +0.141 C 
BRANCH   4   7
ATOM      5  C   UNL     1      -5.692  13.628  24.351  0.00  0.00    +0.401 C 
ATOM      6  O   UNL     1      -6.587  13.294  23.571  0.00  0.00    -0.226 OA
ATOM      7  N   UNL     1      -4.402  13.343  24.170  0.00  0.00    -0.279 N 
ATOM      8  H   UNL     1      -3.740  13.669  24.861  0.00  0.00    +0.152 HD
BRANCH   5   9
ATOM      9  O   UNL     1      -6.034  14.370  25.524  0.00  0.00    -0.444 OA
BRANCH   9  10
ATOM     10  C   UNL     1      -6.559  13.482  26.515  0.00  0.00    +0.292 C 
BRANCH  10  12
ATOM     11  N   UNL     1      -4.484  12.282  27.127  0.00  0.00    -0.131 NA
ATOM     12  C   UNL     1      -5.507  13.114  27.481  0.00  0.00    +0.121 A 
ATOM     13  C   UNL     1      -5.344  13.490  28.794  0.00  0.00    +0.143 A 
ATOM     14  N   UNL     1      -4.184  12.872  29.201  0.00  0.00    -0.218 N 
ATOM     15  N   UNL     1      -3.687  12.137  28.178  0.00  0.00    -0.060 NA
BRANCH  14  16
ATOM     16  C   UNL     1      -3.535  12.949  30.452  0.00  0.00    +0.085 A 
ATOM     17  C   UNL     1      -3.335  14.166  31.108  0.00  0.00    +0.031 A 
ATOM     18  C   UNL     1      -2.667  14.178  32.332  0.00  0.00    +0.022 A 
ATOM     19  C   UNL     1      -2.228  12.975  32.856  0.00  0.00    +0.111 A 
ATOM     20  N   UNL     1      -2.413  11.782  32.251  0.00  0.00    -0.261 NA
ATOM     21  C   UNL     1      -3.063  11.792  31.061  0.00  0.00    +0.138 A 
ENDBRANCH  14  16
ENDBRANCH  10  12
ENDBRANCH   9  10
ENDBRANCH   5   9
ENDBRANCH   4   7
ENDBRANCH   1   4
BRANCH   1  22
ATOM     22  C   UNL     1      -3.911  10.160  23.647  0.00  0.00    +0.175 C 
BRANCH  22  23
ATOM     23  C   UNL     1      -3.859   9.621  25.084  0.00  0.00    +0.176 C 
ATOM     24  O   UNL     1      -2.813   8.613  25.146  0.00  0.00    -0.332 OA
ATOM     25  C   UNL     1      -2.546   8.058  26.476  0.00  0.00    +0.277 C 
ATOM     26  C   UNL     1      -3.848   7.500  27.101  0.00  0.00    +0.110 C 
ATOM     27  C   UNL     1      -4.999   8.526  27.030  0.00  0.00    +0.143 C 
ATOM     28  C   UNL     1      -5.188   9.040  25.602  0.00  0.00    +0.133 C 
BRANCH  28  29
ATOM     29  N   UNL     1      -6.228  10.080  25.562  0.00  0.00    -0.308 N 
ATOM     30  H   UNL     1      -6.063  10.932  26.079  0.00  0.00    +0.149 HD
ATOM     31  C   UNL     1      -7.376   9.971  24.888  0.00  0.00    +0.210 C 
ATOM     32  C   UNL     1      -7.609   8.650  24.132  0.00  0.00    +0.109 C 
ATOM     33  O   UNL     1      -8.223  10.865  24.861  0.00  0.00    -0.276 OA
ENDBRANCH  28  29
BRANCH  25  34
ATOM     34  C   UNL     1      -1.946   9.132  27.407  0.00  0.00    +0.414 C 
ATOM     35  O   UNL     1      -2.185   9.111  28.614  0.00  0.00    -0.240 OA
ATOM     36  O   UNL     1      -1.224  10.020  26.951  0.00  0.00    -0.240 OA
ENDBRANCH  25  34
BRANCH  27  37
ATOM     37  O   UNL     1      -6.213   7.920  27.476  0.00  0.00    -0.390 OA
ATOM     38  H   UNL     1      -6.879   8.598  27.610  0.00  0.00    +0.210 HD
ENDBRANCH  27  37
BRANCH  25  39
ATOM     39  O   UNL     1      -1.606   6.963  26.325  0.00  0.00    -0.343 OA
ATOM     40  C   UNL     1      -2.096   5.670  26.763  0.00  0.00    +0.198 C 
ENDBRANCH  25  39
ENDBRANCH  22  23
BRANCH  22  41
ATOM     41  O   UNL     1      -3.520   9.131  22.716  0.00  0.00    -0.387 OA
ATOM     42  H   UNL     1      -4.170   9.073  22.011  0.00  0.00    +0.210 HD
ENDBRANCH  22  41
ENDBRANCH   1  22
TORSDOF 14
