REMARK VINA RESULT:    -3.902      1.963      2.877
REMARK INTER + INTRA:         -12.148
REMARK INTER:                  -8.189
REMARK INTRA:                  -3.960
REMARK UNBOUND:                -4.711
REMARK  Name = lig_assembled_62.pdb
REMARK  20 active torsions:
REMARK  status: ('A' for Active; 'I' for Inactive)
REMARK    1  A    between atoms: _2  and  _10
REMARK    2  A    between atoms: _5  and  _19
REMARK    3  A    between atoms: _6  and  _10
REMARK    4  A    between atoms: _7  and  _8
REMARK    5  A    between atoms: _7  and  _19
REMARK    6  A    between atoms: _10  and  _11
REMARK    7  A    between atoms: _11  and  _14
REMARK    8  A    between atoms: _12  and  _14
REMARK    9  A    between atoms: _15  and  _35
REMARK   10  A    between atoms: _17  and  _23
REMARK   11  A    between atoms: _18  and  _22
REMARK   12  A    between atoms: _22  and  _23
REMARK   13  A    between atoms: _25  and  _26
REMARK   14  A    between atoms: _27  and  _28
REMARK   15  A    between atoms: _29  and  _31
REMARK   16  A    between atoms: _31  and  _32
REMARK   17  A    between atoms: _31  and  _33
REMARK   18  A    between atoms: _33  and  _34
REMARK   19  A    between atoms: _33  and  _35
REMARK   20  A    between atoms: _36  and  _38
REMARK                            x       y       z     vdW  Elec       q    Type
REMARK                         _______ _______ _______ _____ _____    ______ ____
ROOT
ATOM      1  C   UNL     1      -6.566   8.748  23.298  0.00  0.00    +0.163 C 
ENDROOT
BRANCH   1   2
ATOM      2  O   UNL     1      -6.130   8.906  24.658  0.00  0.00    -0.388 OA
ATOM      3  H   UNL     1      -6.319   8.103  25.150  0.00  0.00    +0.210 HD
ENDBRANCH   1   2
BRANCH   1   4
ATOM      4  C   UNL     1      -6.371  10.051  22.504  0.00  0.00    +0.175 C 
BRANCH   4   5
ATOM      5  C   UNL     1      -5.016  10.711  22.798  0.00  0.00    +0.176 C 
ATOM      6  O   UNL     1      -5.162  11.516  24.000  0.00  0.00    -0.332 OA
ATOM      7  C   UNL     1      -3.933  12.142  24.497  0.00  0.00    +0.277 C 
ATOM      8  C   UNL     1      -3.265  12.983  23.381  0.00  0.00    +0.110 C 
ATOM      9  C   UNL     1      -3.117  12.178  22.073  0.00  0.00    +0.143 C 
ATOM     10  C   UNL     1      -4.454  11.569  21.649  0.00  0.00    +0.133 C 
BRANCH  10  11
ATOM     11  N   UNL     1      -4.283  10.734  20.450  0.00  0.00    -0.308 N 
ATOM     12  H   UNL     1      -3.626   9.968  20.499  0.00  0.00    +0.149 HD
ATOM     13  C   UNL     1      -4.939  10.922  19.302  0.00  0.00    +0.210 C 
ATOM     14  C   UNL     1      -5.914  12.113  19.252  0.00  0.00    +0.109 C 
ATOM     15  O   UNL     1      -4.786  10.197  18.318  0.00  0.00    -0.276 OA
ENDBRANCH  10  11
BRANCH   7  16
ATOM     16  C   UNL     1      -2.941  11.074  25.002  0.00  0.00    +0.414 C 
ATOM     17  O   UNL     1      -1.949  11.407  25.649  0.00  0.00    -0.240 OA
ATOM     18  O   UNL     1      -3.132   9.881  24.763  0.00  0.00    -0.240 OA
ENDBRANCH   7  16
BRANCH   7  19
ATOM     19  O   UNL     1      -4.291  13.031  25.587  0.00  0.00    -0.343 OA
ATOM     20  C   UNL     1      -5.663  13.500  25.569  0.00  0.00    +0.198 C 
ENDBRANCH   7  19
BRANCH   9  21
ATOM     21  O   UNL     1      -2.639  13.033  21.033  0.00  0.00    -0.390 OA
ATOM     22  H   UNL     1      -2.411  13.889  21.402  0.00  0.00    +0.210 HD
ENDBRANCH   9  21
ENDBRANCH   4   5
BRANCH   4  23
ATOM     23  O   UNL     1      -7.444  10.971  22.789  0.00  0.00    -0.387 OA
ATOM     24  H   UNL     1      -8.276  10.493  22.823  0.00  0.00    +0.210 HD
ENDBRANCH   4  23
ENDBRANCH   1   4
BRANCH   1  25
ATOM     25  C   UNL     1      -5.786   7.622  22.628  0.00  0.00    +0.141 C 
BRANCH  25  28
ATOM     26  C   UNL     1      -3.880   6.185  23.268  0.00  0.00    +0.401 C 
ATOM     27  O   UNL     1      -4.305   5.194  22.672  0.00  0.00    -0.226 OA
ATOM     28  N   UNL     1      -4.510   7.360  23.306  0.00  0.00    -0.279 N 
ATOM     29  H   UNL     1      -4.087   8.112  23.831  0.00  0.00    +0.152 HD
BRANCH  26  30
ATOM     30  O   UNL     1      -2.640   6.092  23.974  0.00  0.00    -0.444 OA
BRANCH  30  31
ATOM     31  C   UNL     1      -2.876   5.589  25.292  0.00  0.00    +0.292 C 
BRANCH  31  33
ATOM     32  N   UNL     1      -1.724   7.414  26.506  0.00  0.00    -0.131 NA
ATOM     33  C   UNL     1      -2.862   6.691  26.272  0.00  0.00    +0.120 A 
ATOM     34  C   UNL     1      -3.875   7.178  27.069  0.00  0.00    +0.138 A 
ATOM     35  N   UNL     1      -3.286   8.186  27.777  0.00  0.00    -0.237 N 
ATOM     36  N   UNL     1      -1.994   8.328  27.428  0.00  0.00    -0.065 NA
BRANCH  35  37
ATOM     37  C   UNL     1      -3.863   9.081  28.766  0.00  0.00    +0.219 C 
BRANCH  37  38
ATOM     38  C   UNL     1      -4.423  10.323  28.091  0.00  0.00    +0.237 C 
ATOM     39  O   UNL     1      -5.458  10.344  27.430  0.00  0.00    -0.274 OA
ATOM     40  N   UNL     1      -3.735  11.487  28.308  0.00  0.00    -0.328 N 
ATOM     41  H   UNL     1      -2.928  11.559  28.914  0.00  0.00    +0.145 HD
ATOM     42  H   UNL     1      -4.091  12.331  27.877  0.00  0.00    +0.145 HD
ENDBRANCH  37  38
BRANCH  37  43
ATOM     43  C   UNL     1      -2.828   9.454  29.825  0.00  0.00    +0.195 C 
BRANCH  43  44
ATOM     44  O   UNL     1      -3.502   9.908  31.008  0.00  0.00    -0.380 OA
ATOM     45  C   UNL     1      -2.718  10.849  31.732  0.00  0.00    +0.194 C 
ENDBRANCH  43  44
ENDBRANCH  37  43
ENDBRANCH  35  37
ENDBRANCH  31  33
ENDBRANCH  30  31
ENDBRANCH  26  30
ENDBRANCH  25  28
ENDBRANCH   1  25
TORSDOF 17
