REMARK VINA RESULT:    -4.771      3.141      6.869
REMARK INTER + INTRA:         -12.953
REMARK INTER:                  -8.739
REMARK INTRA:                  -4.215
REMARK UNBOUND:                -3.581
REMARK  Name = lig_assembled_31.pdb
REMARK  20 active torsions:
REMARK  status: ('A' for Active; 'I' for Inactive)
REMARK    1  A    between atoms: _2  and  _11
REMARK    2  A    between atoms: _3  and  _12
REMARK    3  A    between atoms: _4  and  _14
REMARK    4  A    between atoms: _6  and  _24
REMARK    5  A    between atoms: _8  and  _9
REMARK    6  A    between atoms: _8  and  _24
REMARK    7  A    between atoms: _11  and  _12
REMARK    8  A    between atoms: _14  and  _15
REMARK    9  A    between atoms: _20  and  _40
REMARK   10  A    between atoms: _22  and  _28
REMARK   11  A    between atoms: _23  and  _27
REMARK   12  A    between atoms: _27  and  _28
REMARK   13  A    between atoms: _30  and  _31
REMARK   14  A    between atoms: _32  and  _33
REMARK   15  A    between atoms: _34  and  _36
REMARK   16  A    between atoms: _36  and  _37
REMARK   17  A    between atoms: _36  and  _38
REMARK   18  A    between atoms: _38  and  _39
REMARK   19  A    between atoms: _38  and  _40
REMARK   20  A    between atoms: _41  and  _43
REMARK                            x       y       z     vdW  Elec       q    Type
REMARK                         _______ _______ _______ _____ _____    ______ ____
ROOT
ATOM      1  C   UNL     1      -2.639   9.224  26.665  0.00  0.00    +0.401 C 
ATOM      2  O   UNL     1      -1.798   8.347  26.456  0.00  0.00    -0.226 OA
ATOM      3  N   UNL     1      -3.814   9.294  26.040  0.00  0.00    -0.279 N 
ATOM      4  H   UNL     1      -4.442  10.045  26.287  0.00  0.00    +0.152 HD
ENDROOT
BRANCH   1   5
ATOM      5  O   UNL     1      -2.360  10.236  27.636  0.00  0.00    -0.444 OA
BRANCH   5   6
ATOM      6  C   UNL     1      -3.242  10.084  28.751  0.00  0.00    +0.292 C 
BRANCH   6   8
ATOM      7  N   UNL     1      -5.500  10.975  28.269  0.00  0.00    -0.131 NA
ATOM      8  C   UNL     1      -4.242  11.170  28.769  0.00  0.00    +0.120 A 
ATOM      9  C   UNL     1      -4.139  12.462  29.236  0.00  0.00    +0.137 A 
ATOM     10  N   UNL     1      -5.365  13.000  28.981  0.00  0.00    -0.250 N 
ATOM     11  N   UNL     1      -6.183  12.105  28.406  0.00  0.00    -0.065 NA
BRANCH  10  12
ATOM     12  C   UNL     1      -5.825  14.347  29.251  0.00  0.00    +0.164 C 
BRANCH  12  13
ATOM     13  C   UNL     1      -6.918  14.765  28.280  0.00  0.00    +0.129 C 
BRANCH  13  14
ATOM     14  N   UNL     1      -6.582  14.589  26.873  0.00  0.00    -0.298 N 
ATOM     15  H   UNL     1      -5.810  13.999  26.597  0.00  0.00    +0.150 HD
ATOM     16  C   UNL     1      -7.019  15.530  25.978  0.00  0.00    +0.300 C 
ATOM     17  O   UNL     1      -7.761  16.456  26.296  0.00  0.00    -0.253 OA
ATOM     18  N   UNL     1      -6.585  15.337  24.703  0.00  0.00    -0.292 N 
ATOM     19  H   UNL     1      -5.942  14.600  24.450  0.00  0.00    +0.151 HD
BRANCH  18  20
ATOM     20  C   UNL     1      -6.997  16.273  23.683  0.00  0.00    +0.180 C 
BRANCH  20  21
ATOM     21  C   UNL     1      -5.875  17.074  23.132  0.00  0.00    +0.122 A 
ATOM     22  O   UNL     1      -5.638  18.322  23.638  0.00  0.00    -0.466 OA
ATOM     23  C   UNL     1      -4.568  18.823  22.961  0.00  0.00    +0.195 A 
ATOM     24  C   UNL     1      -4.115  17.919  22.028  0.00  0.00    +0.041 A 
ATOM     25  C   UNL     1      -4.958  16.789  22.136  0.00  0.00    +0.046 A 
ENDBRANCH  20  21
ENDBRANCH  18  20
ENDBRANCH  13  14
ENDBRANCH  12  13
ENDBRANCH  10  12
ENDBRANCH   6   8
ENDBRANCH   5   6
ENDBRANCH   1   5
BRANCH   3  26
ATOM     26  C   UNL     1      -4.248   8.339  25.012  0.00  0.00    +0.141 C 
BRANCH  26  27
ATOM     27  C   UNL     1      -4.174   8.939  23.611  0.00  0.00    +0.163 C 
BRANCH  27  28
ATOM     28  O   UNL     1      -3.663   7.965  22.686  0.00  0.00    -0.388 OA
ATOM     29  H   UNL     1      -4.324   7.785  22.013  0.00  0.00    +0.210 HD
ENDBRANCH  27  28
BRANCH  27  30
ATOM     30  C   UNL     1      -5.570   9.423  23.185  0.00  0.00    +0.175 C 
BRANCH  30  31
ATOM     31  C   UNL     1      -5.501  10.476  22.069  0.00  0.00    +0.176 C 
ATOM     32  O   UNL     1      -5.125   9.798  20.839  0.00  0.00    -0.332 OA
ATOM     33  C   UNL     1      -5.111  10.633  19.634  0.00  0.00    +0.277 C 
ATOM     34  C   UNL     1      -4.209  11.873  19.845  0.00  0.00    +0.110 C 
ATOM     35  C   UNL     1      -4.551  12.609  21.157  0.00  0.00    +0.143 C 
ATOM     36  C   UNL     1      -4.539  11.646  22.345  0.00  0.00    +0.133 C 
BRANCH  36  37
ATOM     37  N   UNL     1      -4.951  12.341  23.575  0.00  0.00    -0.308 N 
ATOM     38  H   UNL     1      -5.920  12.613  23.661  0.00  0.00    +0.149 HD
ATOM     39  C   UNL     1      -4.128  12.634  24.586  0.00  0.00    +0.210 C 
ATOM     40  C   UNL     1      -2.652  12.228  24.413  0.00  0.00    +0.109 C 
ATOM     41  O   UNL     1      -4.504  13.204  25.611  0.00  0.00    -0.276 OA
ENDBRANCH  36  37
BRANCH  33  42
ATOM     42  C   UNL     1      -6.539  11.089  19.269  0.00  0.00    +0.414 C 
ATOM     43  O   UNL     1      -7.458  10.273  19.221  0.00  0.00    -0.240 OA
ATOM     44  O   UNL     1      -6.772  12.273  19.022  0.00  0.00    -0.240 OA
ENDBRANCH  33  42
BRANCH  35  45
ATOM     45  O   UNL     1      -3.602  13.651  21.387  0.00  0.00    -0.390 OA
ATOM     46  H   UNL     1      -3.898  14.200  22.117  0.00  0.00    +0.210 HD
ENDBRANCH  35  45
BRANCH  33  47
ATOM     47  O   UNL     1      -4.559   9.844  18.548  0.00  0.00    -0.343 OA
ATOM     48  C   UNL     1      -4.468  10.534  17.275  0.00  0.00    +0.198 C 
ENDBRANCH  33  47
ENDBRANCH  30  31
BRANCH  30  49
ATOM     49  O   UNL     1      -6.281   9.952  24.323  0.00  0.00    -0.387 OA
ATOM     50  H   UNL     1      -5.659  10.373  24.922  0.00  0.00    +0.210 HD
ENDBRANCH  30  49
ENDBRANCH  27  30
ENDBRANCH  26  27
ENDBRANCH   3  26
TORSDOF 18
