REMARK VINA RESULT:    -5.597      2.544      5.436
REMARK INTER + INTRA:         -12.317
REMARK INTER:                  -8.060
REMARK INTRA:                  -4.257
REMARK UNBOUND:                -2.303
REMARK  Name = lig_assembled_4.pdb
REMARK  19 active torsions:
REMARK  status: ('A' for Active; 'I' for Inactive)
REMARK    1  A    between atoms: _2  and  _9
REMARK    2  A    between atoms: _4  and  _21
REMARK    3  A    between atoms: _6  and  _7
REMARK    4  A    between atoms: _6  and  _21
REMARK    5  A    between atoms: _10  and  _11
REMARK    6  A    between atoms: _11  and  _12
REMARK    7  A    between atoms: _11  and  _13
REMARK    8  A    between atoms: _17  and  _37
REMARK    9  A    between atoms: _19  and  _25
REMARK   10  A    between atoms: _20  and  _24
REMARK   11  A    between atoms: _24  and  _25
REMARK   12  A    between atoms: _27  and  _28
REMARK   13  A    between atoms: _29  and  _30
REMARK   14  A    between atoms: _31  and  _33
REMARK   15  A    between atoms: _33  and  _34
REMARK   16  A    between atoms: _33  and  _35
REMARK   17  A    between atoms: _35  and  _36
REMARK   18  A    between atoms: _35  and  _37
REMARK   19  A    between atoms: _38  and  _40
REMARK                            x       y       z     vdW  Elec       q    Type
REMARK                         _______ _______ _______ _____ _____    ______ ____
ROOT
ATOM      1  C   UNL     1      -2.996  11.329  23.265  0.00  0.00    +0.163 C 
ENDROOT
BRANCH   1   2
ATOM      2  O   UNL     1      -2.327  11.736  24.470  0.00  0.00    -0.388 OA
ATOM      3  H   UNL     1      -1.399  11.495  24.418  0.00  0.00    +0.210 HD
ENDBRANCH   1   2
BRANCH   1   4
ATOM      4  C   UNL     1      -3.827  12.482  22.714  0.00  0.00    +0.141 C 
BRANCH   4   7
ATOM      5  C   UNL     1      -5.634  13.602  23.974  0.00  0.00    +0.401 C 
ATOM      6  O   UNL     1      -6.536  13.146  23.269  0.00  0.00    -0.226 OA
ATOM      7  N   UNL     1      -4.338  13.349  23.783  0.00  0.00    -0.279 N 
ATOM      8  H   UNL     1      -3.671  13.777  24.409  0.00  0.00    +0.152 HD
BRANCH   5   9
ATOM      9  O   UNL     1      -5.972  14.460  25.067  0.00  0.00    -0.444 OA
BRANCH   9  10
ATOM     10  C   UNL     1      -6.551  13.686  26.121  0.00  0.00    +0.292 C 
BRANCH  10  12
ATOM     11  N   UNL     1      -4.455  12.526  26.713  0.00  0.00    -0.131 NA
ATOM     12  C   UNL     1      -5.522  13.278  27.094  0.00  0.00    +0.121 A 
ATOM     13  C   UNL     1      -5.450  13.508  28.450  0.00  0.00    +0.143 A 
ATOM     14  N   UNL     1      -4.374  12.755  28.881  0.00  0.00    -0.219 N 
ATOM     15  N   UNL     1      -3.751  12.237  27.800  0.00  0.00    -0.060 NA
BRANCH  14  16
ATOM     16  C   UNL     1      -3.967  12.514  30.227  0.00  0.00    +0.070 A 
ATOM     17  C   UNL     1      -4.312  11.338  30.948  0.00  0.00    -0.019 A 
ATOM     18  C   UNL     1      -3.868  11.242  32.287  0.00  0.00    +0.006 A 
ATOM     19  C   UNL     1      -3.131  12.256  32.899  0.00  0.00    +0.000 A 
ATOM     20  C   UNL     1      -2.794  13.395  32.184  0.00  0.00    +0.002 A 
ATOM     21  C   UNL     1      -3.209  13.525  30.859  0.00  0.00    +0.028 A 
BRANCH  17  22
ATOM     22  C   UNL     1      -5.136  10.184  30.373  0.00  0.00    +0.015 C 
ATOM     23  C   UNL     1      -6.658  10.330  30.530  0.00  0.00    +0.012 C 
ATOM     24  C   UNL     1      -4.676   8.859  30.985  0.00  0.00    +0.012 C 
ENDBRANCH  17  22
ENDBRANCH  14  16
ENDBRANCH  10  12
ENDBRANCH   9  10
ENDBRANCH   5   9
ENDBRANCH   4   7
ENDBRANCH   1   4
BRANCH   1  25
ATOM     25  C   UNL     1      -3.908  10.117  23.525  0.00  0.00    +0.175 C 
BRANCH  25  26
ATOM     26  C   UNL     1      -3.859   9.661  24.991  0.00  0.00    +0.176 C 
ATOM     27  O   UNL     1      -2.836   8.634  25.106  0.00  0.00    -0.332 OA
ATOM     28  C   UNL     1      -2.573   8.151  26.465  0.00  0.00    +0.277 C 
ATOM     29  C   UNL     1      -3.884   7.661  27.128  0.00  0.00    +0.110 C 
ATOM     30  C   UNL     1      -5.011   8.708  27.003  0.00  0.00    +0.143 C 
ATOM     31  C   UNL     1      -5.197   9.142  25.549  0.00  0.00    +0.133 C 
BRANCH  31  32
ATOM     32  N   UNL     1      -6.213  10.202  25.454  0.00  0.00    -0.308 N 
ATOM     33  H   UNL     1      -6.009  11.092  25.888  0.00  0.00    +0.149 HD
ATOM     34  C   UNL     1      -7.388  10.066  24.832  0.00  0.00    +0.210 C 
ATOM     35  C   UNL     1      -7.680   8.691  24.204  0.00  0.00    +0.109 C 
ATOM     36  O   UNL     1      -8.213  10.977  24.756  0.00  0.00    -0.276 OA
ENDBRANCH  31  32
BRANCH  28  37
ATOM     37  C   UNL     1      -1.943   9.263  27.328  0.00  0.00    +0.414 C 
ATOM     38  O   UNL     1      -2.187   9.327  28.532  0.00  0.00    -0.240 OA
ATOM     39  O   UNL     1      -1.190  10.095  26.821  0.00  0.00    -0.240 OA
ENDBRANCH  28  37
BRANCH  30  40
ATOM     40  O   UNL     1      -6.235   8.158  27.491  0.00  0.00    -0.390 OA
ATOM     41  H   UNL     1      -6.046   7.416  28.070  0.00  0.00    +0.210 HD
ENDBRANCH  30  40
BRANCH  28  42
ATOM     42  O   UNL     1      -1.660   7.027  26.372  0.00  0.00    -0.343 OA
ATOM     43  C   UNL     1      -1.942   5.933  27.281  0.00  0.00    +0.198 C 
ENDBRANCH  28  42
ENDBRANCH  25  26
BRANCH  25  44
ATOM     44  O   UNL     1      -3.546   9.027  22.654  0.00  0.00    -0.387 OA
ATOM     45  H   UNL     1      -4.341   8.630  22.290  0.00  0.00    +0.210 HD
ENDBRANCH  25  44
ENDBRANCH   1  25
TORSDOF 15
