REMARK VINA RESULT:    -4.472      4.517      6.642
REMARK INTER + INTRA:         -10.761
REMARK INTER:                  -7.199
REMARK INTRA:                  -3.562
REMARK UNBOUND:                -2.759
REMARK  Name = lig_assembled_38.pdb
REMARK  17 active torsions:
REMARK  status: ('A' for Active; 'I' for Inactive)
REMARK    1  A    between atoms: _2  and  _9
REMARK    2  A    between atoms: _4  and  _19
REMARK    3  A    between atoms: _6  and  _7
REMARK    4  A    between atoms: _6  and  _19
REMARK    5  A    between atoms: _9  and  _10
REMARK    6  A    between atoms: _15  and  _35
REMARK    7  A    between atoms: _17  and  _23
REMARK    8  A    between atoms: _18  and  _22
REMARK    9  A    between atoms: _22  and  _23
REMARK   10  A    between atoms: _25  and  _26
REMARK   11  A    between atoms: _27  and  _28
REMARK   12  A    between atoms: _29  and  _31
REMARK   13  A    between atoms: _31  and  _32
REMARK   14  A    between atoms: _31  and  _33
REMARK   15  A    between atoms: _33  and  _34
REMARK   16  A    between atoms: _33  and  _35
REMARK   17  A    between atoms: _36  and  _38
REMARK                            x       y       z     vdW  Elec       q    Type
REMARK                         _______ _______ _______ _____ _____    ______ ____
ROOT
ATOM      1  C   UNL     1      -3.067  11.253  31.126  0.00  0.00    +0.163 C 
ENDROOT
BRANCH   1   2
ATOM      2  O   UNL     1      -1.935  11.820  31.806  0.00  0.00    -0.388 OA
ATOM      3  H   UNL     1      -2.236  12.489  32.426  0.00  0.00    +0.210 HD
ENDBRANCH   1   2
BRANCH   1   4
ATOM      4  C   UNL     1      -4.356  11.888  31.639  0.00  0.00    +0.141 C 
BRANCH   4   7
ATOM      5  C   UNL     1      -6.438  11.529  30.358  0.00  0.00    +0.401 C 
ATOM      6  O   UNL     1      -6.826  10.600  31.068  0.00  0.00    -0.226 OA
ATOM      7  N   UNL     1      -5.292  12.185  30.548  0.00  0.00    -0.279 N 
ATOM      8  H   UNL     1      -5.054  12.927  29.905  0.00  0.00    +0.152 HD
BRANCH   5   9
ATOM      9  O   UNL     1      -7.246  11.944  29.253  0.00  0.00    -0.444 OA
BRANCH   9  10
ATOM     10  C   UNL     1      -7.234  13.372  29.163  0.00  0.00    +0.292 C 
BRANCH  10  12
ATOM     11  N   UNL     1      -6.939  15.117  27.430  0.00  0.00    -0.131 NA
ATOM     12  C   UNL     1      -7.102  13.796  27.755  0.00  0.00    +0.120 A 
ATOM     13  C   UNL     1      -7.077  13.043  26.602  0.00  0.00    +0.137 A 
ATOM     14  N   UNL     1      -6.839  13.956  25.616  0.00  0.00    -0.247 N 
ATOM     15  N   UNL     1      -6.771  15.204  26.118  0.00  0.00    -0.065 NA
BRANCH  14  16
ATOM     16  C   UNL     1      -6.438  13.696  24.245  0.00  0.00    +0.180 C 
BRANCH  16  17
ATOM     17  C   UNL     1      -5.181  12.869  24.133  0.00  0.00    -0.025 A 
ATOM     18  C   UNL     1      -3.963  13.336  24.654  0.00  0.00    +0.005 A 
ATOM     19  C   UNL     1      -2.822  12.527  24.628  0.00  0.00    +0.001 A 
ATOM     20  C   UNL     1      -2.884  11.246  24.081  0.00  0.00    +0.015 A 
ATOM     21  C   UNL     1      -4.084  10.782  23.553  0.00  0.00    +0.018 A 
ATOM     22 BR   UNL     1      -4.175   9.042  22.819  0.00  0.00    -0.050 Br
ATOM     23  C   UNL     1      -5.229  11.582  23.575  0.00  0.00    +0.020 A 
ENDBRANCH  16  17
ENDBRANCH  14  16
ENDBRANCH  10  12
ENDBRANCH   9  10
ENDBRANCH   5   9
ENDBRANCH   4   7
ENDBRANCH   1   4
BRANCH   1  24
ATOM     24  C   UNL     1      -3.127   9.729  31.334  0.00  0.00    +0.175 C 
BRANCH  24  25
ATOM     25  C   UNL     1      -3.074   8.962  30.005  0.00  0.00    +0.176 C 
ATOM     26  O   UNL     1      -3.850   9.709  29.027  0.00  0.00    -0.332 OA
ATOM     27  C   UNL     1      -3.826   9.178  27.660  0.00  0.00    +0.277 C 
ATOM     28  C   UNL     1      -4.261   7.692  27.649  0.00  0.00    +0.110 C 
ATOM     29  C   UNL     1      -3.485   6.864  28.696  0.00  0.00    +0.143 C 
ATOM     30  C   UNL     1      -3.574   7.508  30.080  0.00  0.00    +0.133 C 
BRANCH  30  31
ATOM     31  N   UNL     1      -2.761   6.758  31.050  0.00  0.00    -0.308 N 
ATOM     32  H   UNL     1      -1.755   6.802  30.956  0.00  0.00    +0.149 HD
ATOM     33  C   UNL     1      -3.263   6.024  32.046  0.00  0.00    +0.210 C 
ATOM     34  C   UNL     1      -4.799   5.956  32.146  0.00  0.00    +0.109 C 
ATOM     35  O   UNL     1      -2.557   5.418  32.853  0.00  0.00    -0.276 OA
ENDBRANCH  30  31
BRANCH  27  36
ATOM     36  C   UNL     1      -2.416   9.307  27.048  0.00  0.00    +0.414 C 
ATOM     37  O   UNL     1      -1.978   8.427  26.308  0.00  0.00    -0.240 OA
ATOM     38  O   UNL     1      -1.717  10.292  27.293  0.00  0.00    -0.240 OA
ENDBRANCH  27  36
BRANCH  27  39
ATOM     39  O   UNL     1      -4.774   9.938  26.867  0.00  0.00    -0.343 OA
ATOM     40  C   UNL     1      -5.979   9.220  26.500  0.00  0.00    +0.198 C 
ENDBRANCH  27  39
BRANCH  29  41
ATOM     41  O   UNL     1      -4.021   5.542  28.756  0.00  0.00    -0.390 OA
ATOM     42  H   UNL     1      -3.427   4.978  29.258  0.00  0.00    +0.210 HD
ENDBRANCH  29  41
ENDBRANCH  24  25
BRANCH  24  43
ATOM     43  O   UNL     1      -4.317   9.374  32.066  0.00  0.00    -0.387 OA
ATOM     44  H   UNL     1      -4.374   9.907  32.862  0.00  0.00    +0.210 HD
ENDBRANCH  24  43
ENDBRANCH   1  24
TORSDOF 15
