REMARK VINA RESULT:    -3.410      2.893      6.656
REMARK INTER + INTRA:         -10.310
REMARK INTER:                  -6.274
REMARK INTRA:                  -4.035
REMARK UNBOUND:                -4.108
REMARK  Name = lig_assembled_53.pdb
REMARK  18 active torsions:
REMARK  status: ('A' for Active; 'I' for Inactive)
REMARK    1  A    between atoms: _2  and  _9
REMARK    2  A    between atoms: _4  and  _16
REMARK    3  A    between atoms: _5  and  _9
REMARK    4  A    between atoms: _5  and  _10
REMARK    5  A    between atoms: _6  and  _7
REMARK    6  A    between atoms: _6  and  _16
REMARK    7  A    between atoms: _12  and  _32
REMARK    8  A    between atoms: _14  and  _20
REMARK    9  A    between atoms: _15  and  _19
REMARK   10  A    between atoms: _19  and  _20
REMARK   11  A    between atoms: _22  and  _23
REMARK   12  A    between atoms: _24  and  _25
REMARK   13  A    between atoms: _26  and  _28
REMARK   14  A    between atoms: _28  and  _29
REMARK   15  A    between atoms: _28  and  _30
REMARK   16  A    between atoms: _30  and  _31
REMARK   17  A    between atoms: _30  and  _32
REMARK   18  A    between atoms: _33  and  _35
REMARK                            x       y       z     vdW  Elec       q    Type
REMARK                         _______ _______ _______ _____ _____    ______ ____
ROOT
ATOM      1  C   UNL     1      -5.277  11.494  28.650  0.00  0.00    +0.175 C 
ENDROOT
BRANCH   1   2
ATOM      2  C   UNL     1      -4.985  11.107  27.192  0.00  0.00    +0.176 C 
ATOM      3  O   UNL     1      -4.711  12.328  26.452  0.00  0.00    -0.332 OA
ATOM      4  C   UNL     1      -4.305  12.144  25.055  0.00  0.00    +0.277 C 
ATOM      5  C   UNL     1      -5.352  11.295  24.294  0.00  0.00    +0.110 C 
ATOM      6  C   UNL     1      -5.700  10.000  25.059  0.00  0.00    +0.143 C 
ATOM      7  C   UNL     1      -6.105  10.307  26.501  0.00  0.00    +0.133 C 
BRANCH   7   8
ATOM      8  N   UNL     1      -6.350   9.061  27.244  0.00  0.00    -0.308 N 
ATOM      9  H   UNL     1      -5.561   8.454  27.420  0.00  0.00    +0.149 HD
ATOM     10  C   UNL     1      -7.546   8.679  27.701  0.00  0.00    +0.210 C 
ATOM     11  C   UNL     1      -8.731   9.613  27.394  0.00  0.00    +0.109 C 
ATOM     12  O   UNL     1      -7.718   7.637  28.334  0.00  0.00    -0.276 OA
ENDBRANCH   7   8
BRANCH   4  13
ATOM     13  C   UNL     1      -2.926  11.458  24.972  0.00  0.00    +0.414 C 
ATOM     14  O   UNL     1      -2.730  10.556  24.159  0.00  0.00    -0.240 OA
ATOM     15  O   UNL     1      -2.009  11.807  25.718  0.00  0.00    -0.240 OA
ENDBRANCH   4  13
BRANCH   4  16
ATOM     16  O   UNL     1      -4.238  13.453  24.432  0.00  0.00    -0.343 OA
ATOM     17  C   UNL     1      -3.908  13.442  23.020  0.00  0.00    +0.198 C 
ENDBRANCH   4  16
BRANCH   6  18
ATOM     18  O   UNL     1      -6.773   9.326  24.402  0.00  0.00    -0.390 OA
ATOM     19  H   UNL     1      -7.077   8.598  24.949  0.00  0.00    +0.210 HD
ENDBRANCH   6  18
ENDBRANCH   1   2
BRANCH   1  20
ATOM     20  O   UNL     1      -6.629  11.980  28.773  0.00  0.00    -0.387 OA
ATOM     21  H   UNL     1      -6.756  12.727  28.184  0.00  0.00    +0.210 HD
ENDBRANCH   1  20
BRANCH   1  22
ATOM     22  C   UNL     1      -4.286  12.545  29.179  0.00  0.00    +0.163 C 
BRANCH  22  23
ATOM     23  O   UNL     1      -2.971  12.326  28.644  0.00  0.00    -0.388 OA
ATOM     24  H   UNL     1      -2.395  13.049  28.903  0.00  0.00    +0.210 HD
ENDBRANCH  22  23
BRANCH  22  25
ATOM     25  C   UNL     1      -4.247  12.485  30.703  0.00  0.00    +0.141 C 
BRANCH  25  28
ATOM     26  C   UNL     1      -3.878  10.412  31.995  0.00  0.00    +0.401 C 
ATOM     27  O   UNL     1      -2.748  10.734  32.370  0.00  0.00    -0.226 OA
ATOM     28  N   UNL     1      -4.647  11.167  31.210  0.00  0.00    -0.279 N 
ATOM     29  H   UNL     1      -5.556  10.812  30.949  0.00  0.00    +0.152 HD
BRANCH  26  30
ATOM     30  O   UNL     1      -4.415   9.154  32.414  0.00  0.00    -0.444 OA
BRANCH  30  31
ATOM     31  C   UNL     1      -3.462   8.119  32.160  0.00  0.00    +0.292 C 
BRANCH  31  33
ATOM     32  N   UNL     1      -4.451   8.128  29.889  0.00  0.00    -0.131 NA
ATOM     33  C   UNL     1      -3.413   7.804  30.720  0.00  0.00    +0.120 A 
ATOM     34  C   UNL     1      -2.425   7.187  29.986  0.00  0.00    +0.137 A 
ATOM     35  N   UNL     1      -2.946   7.104  28.730  0.00  0.00    -0.241 N 
ATOM     36  N   UNL     1      -4.146   7.714  28.667  0.00  0.00    -0.065 NA
BRANCH  35  37
ATOM     37  C   UNL     1      -2.351   6.626  27.499  0.00  0.00    +0.265 C 
BRANCH  37  38
ATOM     38  C   UNL     1      -2.478   7.552  26.320  0.00  0.00    +0.326 C 
ATOM     39  O   UNL     1      -2.980   7.292  25.236  0.00  0.00    -0.249 OA
BRANCH  38  40
ATOM     40  O   UNL     1      -1.944   8.779  26.562  0.00  0.00    -0.479 OA
ATOM     41  H   UNL     1      -2.005   9.422  25.830  0.00  0.00    +0.295 HD
ENDBRANCH  38  40
ENDBRANCH  37  38
ENDBRANCH  35  37
ENDBRANCH  31  33
ENDBRANCH  30  31
ENDBRANCH  26  30
ENDBRANCH  25  28
ENDBRANCH  22  25
ENDBRANCH   1  22
TORSDOF 16
