REMARK VINA RESULT:    -4.448      6.089     11.051
REMARK INTER + INTRA:         -10.802
REMARK INTER:                  -8.280
REMARK INTRA:                  -2.522
REMARK UNBOUND:                -2.844
REMARK  Name = lig_assembled_44.pdb
REMARK  17 active torsions:
REMARK  status: ('A' for Active; 'I' for Inactive)
REMARK    1  A    between atoms: _2  and  _9
REMARK    2  A    between atoms: _4  and  _19
REMARK    3  A    between atoms: _6  and  _7
REMARK    4  A    between atoms: _6  and  _19
REMARK    5  A    between atoms: _9  and  _10
REMARK    6  A    between atoms: _15  and  _35
REMARK    7  A    between atoms: _17  and  _23
REMARK    8  A    between atoms: _18  and  _22
REMARK    9  A    between atoms: _22  and  _23
REMARK   10  A    between atoms: _25  and  _26
REMARK   11  A    between atoms: _27  and  _28
REMARK   12  A    between atoms: _29  and  _31
REMARK   13  A    between atoms: _31  and  _32
REMARK   14  A    between atoms: _31  and  _33
REMARK   15  A    between atoms: _33  and  _34
REMARK   16  A    between atoms: _33  and  _35
REMARK   17  A    between atoms: _36  and  _38
REMARK                            x       y       z     vdW  Elec       q    Type
REMARK                         _______ _______ _______ _____ _____    ______ ____
ROOT
ATOM      1  C   UNL     1      -5.979   8.763  21.900  0.00  0.00    +0.163 C 
ENDROOT
BRANCH   1   2
ATOM      2  O   UNL     1      -6.661   8.501  20.663  0.00  0.00    -0.388 OA
ATOM      3  H   UNL     1      -7.536   8.894  20.690  0.00  0.00    +0.210 HD
ENDBRANCH   1   2
BRANCH   1   4
ATOM      4  C   UNL     1      -6.142   7.579  22.847  0.00  0.00    +0.141 C 
BRANCH   4   7
ATOM      5  C   UNL     1      -3.889   6.782  23.476  0.00  0.00    +0.401 C 
ATOM      6  O   UNL     1      -3.700   6.189  22.411  0.00  0.00    -0.226 OA
ATOM      7  N   UNL     1      -5.005   7.452  23.767  0.00  0.00    -0.279 N 
ATOM      8  H   UNL     1      -5.071   7.898  24.671  0.00  0.00    +0.152 HD
BRANCH   5   9
ATOM      9  O   UNL     1      -2.867   6.759  24.475  0.00  0.00    -0.444 OA
BRANCH   9  10
ATOM     10  C   UNL     1      -3.336   6.046  25.622  0.00  0.00    +0.292 C 
BRANCH  10  12
ATOM     11  N   UNL     1      -1.751   7.509  26.843  0.00  0.00    -0.131 NA
ATOM     12  C   UNL     1      -2.839   6.676  26.860  0.00  0.00    +0.120 A 
ATOM     13  C   UNL     1      -3.319   6.589  28.146  0.00  0.00    +0.137 A 
ATOM     14  N   UNL     1      -2.530   7.451  28.850  0.00  0.00    -0.247 N 
ATOM     15  N   UNL     1      -1.563   7.971  28.072  0.00  0.00    -0.065 NA
BRANCH  14  16
ATOM     16  C   UNL     1      -2.635   7.827  30.246  0.00  0.00    +0.180 C 
BRANCH  16  17
ATOM     17  C   UNL     1      -3.171   9.230  30.403  0.00  0.00    -0.026 A 
ATOM     18  C   UNL     1      -2.569  10.131  31.295  0.00  0.00    +0.006 A 
ATOM     19  C   UNL     1      -3.076  11.422  31.450  0.00  0.00    +0.015 A 
ATOM     20  C   UNL     1      -4.190  11.821  30.713  0.00  0.00    +0.018 A 
ATOM     21 BR   UNL     1      -4.864  13.575  30.911  0.00  0.00    -0.050 Br
ATOM     22  C   UNL     1      -4.807  10.937  29.832  0.00  0.00    +0.015 A 
ATOM     23  C   UNL     1      -4.302   9.642  29.681  0.00  0.00    +0.006 A 
ENDBRANCH  16  17
ENDBRANCH  14  16
ENDBRANCH  10  12
ENDBRANCH   9  10
ENDBRANCH   5   9
ENDBRANCH   4   7
ENDBRANCH   1   4
BRANCH   1  24
ATOM     24  C   UNL     1      -6.525  10.036  22.570  0.00  0.00    +0.175 C 
BRANCH  24  25
ATOM     25  C   UNL     1      -5.402  10.994  22.992  0.00  0.00    +0.176 C 
ATOM     26  O   UNL     1      -5.544  11.252  24.416  0.00  0.00    -0.332 OA
ATOM     27  C   UNL     1      -4.489  12.069  25.021  0.00  0.00    +0.277 C 
ATOM     28  C   UNL     1      -4.339  13.409  24.260  0.00  0.00    +0.110 C 
ATOM     29  C   UNL     1      -4.216  13.188  22.737  0.00  0.00    +0.143 C 
ATOM     30  C   UNL     1      -5.362  12.323  22.214  0.00  0.00    +0.133 C 
BRANCH  30  31
ATOM     31  N   UNL     1      -5.187  12.047  20.779  0.00  0.00    -0.308 N 
ATOM     32  H   UNL     1      -4.329  11.600  20.486  0.00  0.00    +0.149 HD
ATOM     33  C   UNL     1      -6.086  12.350  19.839  0.00  0.00    +0.210 C 
ATOM     34  C   UNL     1      -7.371  13.054  20.315  0.00  0.00    +0.109 C 
ATOM     35  O   UNL     1      -5.918  12.094  18.646  0.00  0.00    -0.276 OA
ENDBRANCH  30  31
BRANCH  27  36
ATOM     36  C   UNL     1      -3.142  11.318  25.012  0.00  0.00    +0.414 C 
ATOM     37  O   UNL     1      -2.086  11.935  25.153  0.00  0.00    -0.240 OA
ATOM     38  O   UNL     1      -3.110  10.095  24.865  0.00  0.00    -0.240 OA
ENDBRANCH  27  36
BRANCH  27  39
ATOM     39  O   UNL     1      -4.876  12.361  26.389  0.00  0.00    -0.343 OA
ATOM     40  C   UNL     1      -6.293  12.225  26.666  0.00  0.00    +0.198 C 
ENDBRANCH  27  39
BRANCH  29  41
ATOM     41  O   UNL     1      -4.232  14.448  22.065  0.00  0.00    -0.390 OA
ATOM     42  H   UNL     1      -3.648  14.413  21.304  0.00  0.00    +0.210 HD
ENDBRANCH  29  41
ENDBRANCH  24  25
BRANCH  24  43
ATOM     43  O   UNL     1      -7.335   9.688  23.711  0.00  0.00    -0.387 OA
ATOM     44  H   UNL     1      -7.230   8.754  23.906  0.00  0.00    +0.210 HD
ENDBRANCH  24  43
ENDBRANCH   1  24
TORSDOF 15
