REMARK VINA RESULT:    -4.750      4.580      7.600
REMARK INTER + INTRA:         -11.279
REMARK INTER:                  -7.923
REMARK INTRA:                  -3.356
REMARK UNBOUND:                -2.779
REMARK  Name = lig_assembled_39.pdb
REMARK  17 active torsions:
REMARK  status: ('A' for Active; 'I' for Inactive)
REMARK    1  A    between atoms: _2  and  _9
REMARK    2  A    between atoms: _4  and  _19
REMARK    3  A    between atoms: _6  and  _7
REMARK    4  A    between atoms: _6  and  _19
REMARK    5  A    between atoms: _9  and  _10
REMARK    6  A    between atoms: _15  and  _35
REMARK    7  A    between atoms: _17  and  _23
REMARK    8  A    between atoms: _18  and  _22
REMARK    9  A    between atoms: _22  and  _23
REMARK   10  A    between atoms: _25  and  _26
REMARK   11  A    between atoms: _27  and  _28
REMARK   12  A    between atoms: _29  and  _31
REMARK   13  A    between atoms: _31  and  _32
REMARK   14  A    between atoms: _31  and  _33
REMARK   15  A    between atoms: _33  and  _34
REMARK   16  A    between atoms: _33  and  _35
REMARK   17  A    between atoms: _36  and  _38
REMARK                            x       y       z     vdW  Elec       q    Type
REMARK                         _______ _______ _______ _____ _____    ______ ____
ROOT
ATOM      1  C   UNL     1      -2.779  11.667  24.774  0.00  0.00    +0.163 C 
ENDROOT
BRANCH   1   2
ATOM      2  O   UNL     1      -3.050  11.586  26.183  0.00  0.00    -0.388 OA
ATOM      3  H   UNL     1      -3.997  11.514  26.324  0.00  0.00    +0.210 HD
ENDBRANCH   1   2
BRANCH   1   4
ATOM      4  C   UNL     1      -2.960  13.101  24.289  0.00  0.00    +0.141 C 
BRANCH   4   7
ATOM      5  C   UNL     1      -4.381  14.263  22.635  0.00  0.00    +0.401 C 
ATOM      6  O   UNL     1      -3.570  15.170  22.435  0.00  0.00    -0.226 OA
ATOM      7  N   UNL     1      -4.181  13.259  23.489  0.00  0.00    -0.279 N 
ATOM      8  H   UNL     1      -4.910  12.566  23.590  0.00  0.00    +0.152 HD
BRANCH   5   9
ATOM      9  O   UNL     1      -5.620  14.270  21.921  0.00  0.00    -0.444 OA
BRANCH   9  10
ATOM     10  C   UNL     1      -6.155  12.944  21.879  0.00  0.00    +0.292 C 
BRANCH  10  12
ATOM     11  N   UNL     1      -4.509  11.635  20.571  0.00  0.00    -0.131 NA
ATOM     12  C   UNL     1      -5.729  12.257  20.646  0.00  0.00    +0.120 A 
ATOM     13  C   UNL     1      -6.393  12.090  19.451  0.00  0.00    +0.137 A 
ATOM     14  N   UNL     1      -5.561  11.290  18.725  0.00  0.00    -0.247 N 
ATOM     15  N   UNL     1      -4.405  11.070  19.377  0.00  0.00    -0.065 NA
BRANCH  14  16
ATOM     16  C   UNL     1      -5.828  10.647  17.447  0.00  0.00    +0.181 C 
BRANCH  16  17
ATOM     17  C   UNL     1      -4.938  11.152  16.325  0.00  0.00    -0.012 A 
ATOM     18  C   UNL     1      -4.984  12.498  15.911  0.00  0.00    +0.006 A 
ATOM     19  C   UNL     1      -4.174  12.974  14.877  0.00  0.00    +0.000 A 
ATOM     20  C   UNL     1      -3.315  12.109  14.213  0.00  0.00    +0.001 A 
ATOM     21  C   UNL     1      -3.280  10.763  14.570  0.00  0.00    +0.015 A 
ATOM     22  C   UNL     1      -4.092  10.284  15.609  0.00  0.00    +0.023 A 
ATOM     23 BR   UNL     1      -4.001   8.418  15.968  0.00  0.00    -0.050 Br
ENDBRANCH  16  17
ENDBRANCH  14  16
ENDBRANCH  10  12
ENDBRANCH   9  10
ENDBRANCH   5   9
ENDBRANCH   4   7
ENDBRANCH   1   4
BRANCH   1  24
ATOM     24  C   UNL     1      -3.711  10.735  23.980  0.00  0.00    +0.175 C 
BRANCH  24  25
ATOM     25  C   UNL     1      -4.100   9.485  24.784  0.00  0.00    +0.176 C 
ATOM     26  O   UNL     1      -2.878   8.880  25.290  0.00  0.00    -0.332 OA
ATOM     27  C   UNL     1      -3.061   7.726  26.175  0.00  0.00    +0.277 C 
ATOM     28  C   UNL     1      -3.933   6.648  25.486  0.00  0.00    +0.110 C 
ATOM     29  C   UNL     1      -5.229   7.250  24.904  0.00  0.00    +0.143 C 
ATOM     30  C   UNL     1      -4.922   8.445  24.001  0.00  0.00    +0.133 C 
BRANCH  30  31
ATOM     31  N   UNL     1      -6.169   9.064  23.523  0.00  0.00    -0.308 N 
ATOM     32  H   UNL     1      -6.750   9.538  24.200  0.00  0.00    +0.149 HD
ATOM     33  C   UNL     1      -6.583   9.038  22.253  0.00  0.00    +0.210 C 
ATOM     34  C   UNL     1      -5.689   8.284  21.251  0.00  0.00    +0.109 C 
ATOM     35  O   UNL     1      -7.625   9.577  21.879  0.00  0.00    -0.276 OA
ENDBRANCH  30  31
BRANCH  27  36
ATOM     36  C   UNL     1      -3.724   8.154  27.501  0.00  0.00    +0.414 C 
ATOM     37  O   UNL     1      -4.465   7.378  28.103  0.00  0.00    -0.240 OA
ATOM     38  O   UNL     1      -3.517   9.275  27.969  0.00  0.00    -0.240 OA
ENDBRANCH  27  36
BRANCH  27  39
ATOM     39  O   UNL     1      -1.755   7.155  26.444  0.00  0.00    -0.343 OA
ATOM     40  C   UNL     1      -1.629   5.744  26.137  0.00  0.00    +0.198 C 
ENDBRANCH  27  39
BRANCH  29  41
ATOM     41  O   UNL     1      -5.926   6.257  24.150  0.00  0.00    -0.390 OA
ATOM     42  H   UNL     1      -6.753   6.044  24.588  0.00  0.00    +0.210 HD
ENDBRANCH  29  41
ENDBRANCH  24  25
BRANCH  24  43
ATOM     43  O   UNL     1      -3.089  10.352  22.738  0.00  0.00    -0.387 OA
ATOM     44  H   UNL     1      -2.754   9.454  22.810  0.00  0.00    +0.210 HD
ENDBRANCH  24  43
ENDBRANCH   1  24
TORSDOF 15
