REMARK VINA RESULT:    -5.939      2.668     13.185
REMARK INTER + INTRA:         -14.543
REMARK INTER:                 -10.924
REMARK INTRA:                  -3.618
REMARK UNBOUND:                -3.396
REMARK  Name = lig_assembled_34.pdb
REMARK  19 active torsions:
REMARK  status: ('A' for Active; 'I' for Inactive)
REMARK    1  A    between atoms: _2  and  _9
REMARK    2  A    between atoms: _4  and  _37
REMARK    3  A    between atoms: _6  and  _7
REMARK    4  A    between atoms: _6  and  _37
REMARK    5  A    between atoms: _11  and  _12
REMARK    6  A    between atoms: _13  and  _14
REMARK    7  A    between atoms: _18  and  _31
REMARK    8  A    between atoms: _33  and  _53
REMARK    9  A    between atoms: _35  and  _41
REMARK   10  A    between atoms: _36  and  _40
REMARK   11  A    between atoms: _40  and  _41
REMARK   12  A    between atoms: _43  and  _44
REMARK   13  A    between atoms: _45  and  _46
REMARK   14  A    between atoms: _47  and  _49
REMARK   15  A    between atoms: _49  and  _50
REMARK   16  A    between atoms: _49  and  _51
REMARK   17  A    between atoms: _51  and  _52
REMARK   18  A    between atoms: _51  and  _53
REMARK   19  A    between atoms: _54  and  _56
REMARK                            x       y       z     vdW  Elec       q    Type
REMARK                         _______ _______ _______ _____ _____    ______ ____
ROOT
ATOM      1  N   UNL     1      -4.473  13.515  21.691  0.00  0.00    -0.131 NA
ATOM      2  C   UNL     1      -5.603  12.752  21.602  0.00  0.00    +0.121 A 
ATOM      3  C   UNL     1      -5.759  12.051  22.772  0.00  0.00    +0.143 A 
ATOM      4  N   UNL     1      -4.708  12.436  23.576  0.00  0.00    -0.220 N 
ATOM      5  N   UNL     1      -3.925  13.309  22.886  0.00  0.00    -0.060 NA
ENDROOT
BRANCH   4   6
ATOM      6  C   UNL     1      -4.455  12.063  24.924  0.00  0.00    +0.068 A 
ATOM      7  C   UNL     1      -5.502  11.580  25.716  0.00  0.00    +0.038 A 
ATOM      8  C   UNL     1      -5.352  11.311  27.098  0.00  0.00    +0.007 A 
ATOM      9  C   UNL     1      -4.078  11.465  27.680  0.00  0.00    -0.008 A 
ATOM     10  C   UNL     1      -3.011  11.906  26.859  0.00  0.00    +0.011 A 
ATOM     11  C   UNL     1      -3.195  12.220  25.501  0.00  0.00    +0.028 A 
BRANCH   9  12
ATOM     12  C   UNL     1      -3.775  11.271  29.136  0.00  0.00    +0.004 A 
ATOM     13  C   UNL     1      -3.402  10.065  29.650  0.00  0.00    +0.026 A 
ATOM     14  C   UNL     1      -3.324   8.845  28.836  0.00  0.00    +0.016 A 
ATOM     15  C   UNL     1      -3.140   7.639  29.394  0.00  0.00    +0.051 A 
ATOM     16  C   UNL     1      -2.972   7.504  30.861  0.00  0.00    +0.183 A 
ATOM     17  O   UNL     1      -2.867   6.401  31.391  0.00  0.00    -0.288 OA
ATOM     18  C   UNL     1      -2.860   8.746  31.651  0.00  0.00    +0.097 A 
ATOM     19  C   UNL     1      -3.028   9.941  31.071  0.00  0.00    +0.140 A 
ATOM     20  O   UNL     1      -2.775  11.079  31.824  0.00  0.00    -0.455 OA
ATOM     21  C   UNL     1      -3.181  12.291  31.334  0.00  0.00    +0.140 A 
ATOM     22  C   UNL     1      -2.987  13.392  32.169  0.00  0.00    +0.092 A 
ATOM     23  C   UNL     1      -3.428  14.641  31.761  0.00  0.00    +0.120 A 
ATOM     24  C   UNL     1      -4.128  14.787  30.568  0.00  0.00    +0.046 A 
ATOM     25  C   UNL     1      -4.303  13.677  29.735  0.00  0.00    +0.016 A 
ATOM     26  C   UNL     1      -3.775  12.424  30.080  0.00  0.00    +0.026 A 
BRANCH  23  27
ATOM     27  O   UNL     1      -3.148  15.716  32.552  0.00  0.00    -0.507 OA
ATOM     28  H   UNL     1      -2.432  16.215  32.125  0.00  0.00    +0.292 HD
ENDBRANCH  23  27
ENDBRANCH   9  12
BRANCH   8  29
ATOM     29  C   UNL     1      -6.614  10.949  27.857  0.00  0.00    +0.072 C 
ATOM     30  O   UNL     1      -7.040   9.760  27.699  0.00  0.00    -0.545 OA
ATOM     31  O   UNL     1      -7.194  11.855  28.524  0.00  0.00    -0.545 OA
ENDBRANCH   8  29
ENDBRANCH   4   6
BRANCH   2  32
ATOM     32  C   UNL     1      -6.461  12.745  20.401  0.00  0.00    +0.292 C 
BRANCH  32  33
ATOM     33  O   UNL     1      -6.431  11.466  19.764  0.00  0.00    -0.444 OA
BRANCH  33  34
ATOM     34  C   UNL     1      -5.463  11.479  18.711  0.00  0.00    +0.401 C 
ATOM     35  O   UNL     1      -4.365  10.950  18.899  0.00  0.00    -0.226 OA
ATOM     36  N   UNL     1      -5.819  12.072  17.570  0.00  0.00    -0.279 N 
ATOM     37  H   UNL     1      -6.745  12.470  17.508  0.00  0.00    +0.152 HD
BRANCH  36  38
ATOM     38  C   UNL     1      -4.939  12.179  16.400  0.00  0.00    +0.141 C 
BRANCH  38  39
ATOM     39  C   UNL     1      -5.605  11.640  15.138  0.00  0.00    +0.163 C 
BRANCH  39  40
ATOM     40  O   UNL     1      -4.765  11.883  13.997  0.00  0.00    -0.388 OA
ATOM     41  H   UNL     1      -5.097  11.388  13.244  0.00  0.00    +0.210 HD
ENDBRANCH  39  40
BRANCH  39  42
ATOM     42  C   UNL     1      -5.883  10.136  15.306  0.00  0.00    +0.175 C 
BRANCH  42  43
ATOM     43  C   UNL     1      -4.645   9.281  14.995  0.00  0.00    +0.176 C 
ATOM     44  O   UNL     1      -4.595   9.072  13.557  0.00  0.00    -0.332 OA
ATOM     45  C   UNL     1      -3.414   8.360  13.060  0.00  0.00    +0.277 C 
ATOM     46  C   UNL     1      -3.251   7.005  13.792  0.00  0.00    +0.110 C 
ATOM     47  C   UNL     1      -3.329   7.173  15.324  0.00  0.00    +0.143 C 
ATOM     48  C   UNL     1      -4.595   7.929  15.730  0.00  0.00    +0.133 C 
BRANCH  48  49
ATOM     49  N   UNL     1      -4.615   8.158  17.183  0.00  0.00    -0.308 N 
ATOM     50  H   UNL     1      -3.885   8.733  17.580  0.00  0.00    +0.149 HD
ATOM     51  C   UNL     1      -5.534   7.656  18.012  0.00  0.00    +0.210 C 
ATOM     52  C   UNL     1      -6.618   6.763  17.380  0.00  0.00    +0.109 C 
ATOM     53  O   UNL     1      -5.534   7.877  19.224  0.00  0.00    -0.276 OA
ENDBRANCH  48  49
BRANCH  45  54
ATOM     54  C   UNL     1      -2.141   9.209  13.258  0.00  0.00    +0.414 C 
ATOM     55  O   UNL     1      -1.085   8.674  13.595  0.00  0.00    -0.240 OA
ATOM     56  O   UNL     1      -2.169  10.427  13.080  0.00  0.00    -0.240 OA
ENDBRANCH  45  54
BRANCH  47  57
ATOM     57  O   UNL     1      -3.327   5.889  15.950  0.00  0.00    -0.390 OA
ATOM     58  H   UNL     1      -4.049   5.839  16.581  0.00  0.00    +0.210 HD
ENDBRANCH  47  57
BRANCH  45  59
ATOM     59  O   UNL     1      -3.610   8.096  11.647  0.00  0.00    -0.343 OA
ATOM     60  C   UNL     1      -3.300   6.743  11.229  0.00  0.00    +0.198 C 
ENDBRANCH  45  59
ENDBRANCH  42  43
BRANCH  42  61
ATOM     61  O   UNL     1      -6.985   9.737  14.466  0.00  0.00    -0.387 OA
ATOM     62  H   UNL     1      -7.799  10.118  14.804  0.00  0.00    +0.210 HD
ENDBRANCH  42  61
ENDBRANCH  39  42
ENDBRANCH  38  39
ENDBRANCH  36  38
ENDBRANCH  33  34
ENDBRANCH  32  33
ENDBRANCH   2  32
TORSDOF 17
