REMARK VINA RESULT:    -5.716      5.745      9.922
REMARK INTER + INTRA:         -12.369
REMARK INTER:                  -8.233
REMARK INTRA:                  -4.136
REMARK UNBOUND:                -2.475
REMARK  Name = lig_assembled_25.pdb
REMARK  16 active torsions:
REMARK  status: ('A' for Active; 'I' for Inactive)
REMARK    1  A    between atoms: _2  and  _9
REMARK    2  A    between atoms: _4  and  _25
REMARK    3  A    between atoms: _6  and  _7
REMARK    4  A    between atoms: _6  and  _25
REMARK    5  A    between atoms: _21  and  _41
REMARK    6  A    between atoms: _23  and  _29
REMARK    7  A    between atoms: _24  and  _28
REMARK    8  A    between atoms: _28  and  _29
REMARK    9  A    between atoms: _31  and  _32
REMARK   10  A    between atoms: _33  and  _34
REMARK   11  A    between atoms: _35  and  _37
REMARK   12  A    between atoms: _37  and  _38
REMARK   13  A    between atoms: _37  and  _39
REMARK   14  A    between atoms: _39  and  _40
REMARK   15  A    between atoms: _39  and  _41
REMARK   16  A    between atoms: _42  and  _44
REMARK                            x       y       z     vdW  Elec       q    Type
REMARK                         _______ _______ _______ _____ _____    ______ ____
ROOT
ATOM      1  C   UNL     1      -3.150  12.269  23.834  0.00  0.00    +0.141 C 
ENDROOT
BRANCH   1   4
ATOM      2  C   UNL     1      -5.064  13.829  23.905  0.00  0.00    +0.401 C 
ATOM      3  O   UNL     1      -4.995  14.117  22.708  0.00  0.00    -0.226 OA
ATOM      4  N   UNL     1      -4.238  12.979  24.516  0.00  0.00    -0.279 N 
ATOM      5  H   UNL     1      -4.369  12.814  25.505  0.00  0.00    +0.152 HD
BRANCH   2   6
ATOM      6  O   UNL     1      -6.081  14.435  24.708  0.00  0.00    -0.444 OA
BRANCH   6   7
ATOM      7  C   UNL     1      -7.064  13.455  25.052  0.00  0.00    +0.292 C 
BRANCH   7   9
ATOM      8  N   UNL     1      -8.342  13.358  27.164  0.00  0.00    -0.131 NA
ATOM      9  C   UNL     1      -7.138  13.292  26.517  0.00  0.00    +0.120 A 
ATOM     10  C   UNL     1      -6.140  13.086  27.443  0.00  0.00    +0.138 A 
ATOM     11  N   UNL     1      -6.796  13.054  28.641  0.00  0.00    -0.240 N 
ATOM     12  N   UNL     1      -8.126  13.208  28.462  0.00  0.00    -0.064 NA
BRANCH  11  13
ATOM     13  C   UNL     1      -6.268  12.969  29.993  0.00  0.00    +0.170 C 
ATOM     14  C   UNL     1      -5.496  14.219  30.396  0.00  0.00    -0.011 A 
ATOM     15  C   UNL     1      -4.191  13.868  30.806  0.00  0.00    -0.012 A 
ATOM     16  C   UNL     1      -4.028  12.433  30.682  0.00  0.00    -0.012 A 
ATOM     17  C   UNL     1      -2.948  11.624  30.995  0.00  0.00    +0.009 A 
ATOM     18  C   UNL     1      -3.075  10.245  30.804  0.00  0.00    +0.001 A 
ATOM     19  C   UNL     1      -4.265   9.693  30.302  0.00  0.00    +0.000 A 
ATOM     20  C   UNL     1      -5.356  10.507  29.986  0.00  0.00    +0.006 A 
ATOM     21  C   UNL     1      -3.307  14.841  31.241  0.00  0.00    +0.009 A 
ATOM     22  C   UNL     1      -3.740  16.171  31.265  0.00  0.00    +0.001 A 
ATOM     23  C   UNL     1      -5.040  16.514  30.860  0.00  0.00    +0.000 A 
ATOM     24  C   UNL     1      -5.934  15.536  30.423  0.00  0.00    +0.006 A 
ATOM     25  C   UNL     1      -5.225  11.874  30.178  0.00  0.00    -0.011 A 
ENDBRANCH  11  13
ENDBRANCH   7   9
ENDBRANCH   6   7
ENDBRANCH   2   6
ENDBRANCH   1   4
BRANCH   1  26
ATOM     26  C   UNL     1      -2.935  10.872  24.407  0.00  0.00    +0.163 C 
BRANCH  26  27
ATOM     27  O   UNL     1      -1.916  10.907  25.420  0.00  0.00    -0.388 OA
ATOM     28  H   UNL     1      -1.765  11.816  25.691  0.00  0.00    +0.210 HD
ENDBRANCH  26  27
BRANCH  26  29
ATOM     29  C   UNL     1      -4.261  10.342  24.978  0.00  0.00    +0.175 C 
BRANCH  29  30
ATOM     30  C   UNL     1      -4.038   9.283  26.068  0.00  0.00    +0.176 C 
ATOM     31  O   UNL     1      -2.941   8.428  25.644  0.00  0.00    -0.332 OA
ATOM     32  C   UNL     1      -2.514   7.416  26.615  0.00  0.00    +0.277 C 
ATOM     33  C   UNL     1      -3.716   6.545  27.053  0.00  0.00    +0.110 C 
ATOM     34  C   UNL     1      -4.920   7.410  27.483  0.00  0.00    +0.143 C 
ATOM     35  C   UNL     1      -5.277   8.430  26.401  0.00  0.00    +0.133 C 
BRANCH  35  36
ATOM     36  N   UNL     1      -6.368   9.305  26.858  0.00  0.00    -0.308 N 
ATOM     37  H   UNL     1      -6.165   9.965  27.596  0.00  0.00    +0.149 HD
ATOM     38  C   UNL     1      -7.608   9.284  26.362  0.00  0.00    +0.210 C 
ATOM     39  C   UNL     1      -7.891   8.249  25.257  0.00  0.00    +0.109 C 
ATOM     40  O   UNL     1      -8.498  10.040  26.754  0.00  0.00    -0.276 OA
ENDBRANCH  35  36
BRANCH  32  41
ATOM     41  C   UNL     1      -1.880   8.081  27.855  0.00  0.00    +0.414 C 
ATOM     42  O   UNL     1      -1.434   9.226  27.785  0.00  0.00    -0.240 OA
ATOM     43  O   UNL     1      -1.814   7.473  28.924  0.00  0.00    -0.240 OA
ENDBRANCH  32  41
BRANCH  34  44
ATOM     44  O   UNL     1      -6.050   6.574  27.732  0.00  0.00    -0.390 OA
ATOM     45  H   UNL     1      -6.840   7.115  27.805  0.00  0.00    +0.210 HD
ENDBRANCH  34  44
BRANCH  32  46
ATOM     46  O   UNL     1      -1.538   6.558  25.969  0.00  0.00    -0.343 OA
ATOM     47  C   UNL     1      -2.049   5.275  25.528  0.00  0.00    +0.198 C 
ENDBRANCH  32  46
ENDBRANCH  29  30
BRANCH  29  48
ATOM     48  O   UNL     1      -5.077   9.801  23.920  0.00  0.00    -0.387 OA
ATOM     49  H   UNL     1      -5.179  10.457  23.227  0.00  0.00    +0.210 HD
ENDBRANCH  29  48
ENDBRANCH  26  29
ENDBRANCH   1  26
TORSDOF 14
