REMARK VINA RESULT:    -4.653      2.780      4.081
REMARK INTER + INTRA:         -12.611
REMARK INTER:                 -10.157
REMARK INTRA:                  -2.454
REMARK UNBOUND:                -3.062
REMARK  Name = lig_assembled_74.pdb
REMARK  24 active torsions:
REMARK  status: ('A' for Active; 'I' for Inactive)
REMARK    1  A    between atoms: _2  and  _9
REMARK    2  A    between atoms: _4  and  _22
REMARK    3  A    between atoms: _5  and  _14
REMARK    4  A    between atoms: _6  and  _7
REMARK    5  A    between atoms: _6  and  _22
REMARK    6  A    between atoms: _9  and  _10
REMARK    7  A    between atoms: _10  and  _11
REMARK    8  A    between atoms: _10  and  _13
REMARK    9  A    between atoms: _11  and  _12
REMARK   10  A    between atoms: _12  and  _16
REMARK   11  A    between atoms: _13  and  _14
REMARK   12  A    between atoms: _14  and  _15
REMARK   13  A    between atoms: _18  and  _38
REMARK   14  A    between atoms: _20  and  _26
REMARK   15  A    between atoms: _21  and  _25
REMARK   16  A    between atoms: _25  and  _26
REMARK   17  A    between atoms: _28  and  _29
REMARK   18  A    between atoms: _30  and  _31
REMARK   19  A    between atoms: _32  and  _34
REMARK   20  A    between atoms: _34  and  _35
REMARK   21  A    between atoms: _34  and  _36
REMARK   22  A    between atoms: _36  and  _37
REMARK   23  A    between atoms: _36  and  _38
REMARK   24  A    between atoms: _39  and  _41
REMARK                            x       y       z     vdW  Elec       q    Type
REMARK                         _______ _______ _______ _____ _____    ______ ____
ROOT
ATOM      1  C   UNL     1      -3.916  11.809  25.147  0.00  0.00    +0.163 C 
ENDROOT
BRANCH   1   2
ATOM      2  O   UNL     1      -2.884  10.859  24.835  0.00  0.00    -0.388 OA
ATOM      3  H   UNL     1      -3.203  10.246  24.169  0.00  0.00    +0.210 HD
ENDBRANCH   1   2
BRANCH   1   4
ATOM      4  C   UNL     1      -3.915  12.150  26.647  0.00  0.00    +0.175 C 
BRANCH   4   5
ATOM      5  C   UNL     1      -3.506  10.948  27.512  0.00  0.00    +0.176 C 
ATOM      6  O   UNL     1      -4.148   9.764  26.965  0.00  0.00    -0.332 OA
ATOM      7  C   UNL     1      -3.787   8.495  27.604  0.00  0.00    +0.277 C 
ATOM      8  C   UNL     1      -4.035   8.567  29.130  0.00  0.00    +0.110 C 
ATOM      9  C   UNL     1      -3.398   9.827  29.752  0.00  0.00    +0.143 C 
ATOM     10  C   UNL     1      -3.839  11.089  29.009  0.00  0.00    +0.133 C 
BRANCH  10  11
ATOM     11  N   UNL     1      -3.158  12.273  29.555  0.00  0.00    -0.308 N 
ATOM     12  H   UNL     1      -2.164  12.363  29.392  0.00  0.00    +0.149 HD
ATOM     13  C   UNL     1      -3.766  13.238  30.251  0.00  0.00    +0.210 C 
ATOM     14  C   UNL     1      -5.274  13.059  30.504  0.00  0.00    +0.109 C 
ATOM     15  O   UNL     1      -3.172  14.226  30.684  0.00  0.00    -0.276 OA
ENDBRANCH  10  11
BRANCH   7  16
ATOM     16  C   UNL     1      -2.307   8.151  27.338  0.00  0.00    +0.414 C 
ATOM     17  O   UNL     1      -1.642   7.568  28.194  0.00  0.00    -0.240 OA
ATOM     18  O   UNL     1      -1.777   8.456  26.269  0.00  0.00    -0.240 OA
ENDBRANCH   7  16
BRANCH   9  19
ATOM     19  O   UNL     1      -3.777   9.933  31.125  0.00  0.00    -0.390 OA
ATOM     20  H   UNL     1      -3.030   9.705  31.683  0.00  0.00    +0.210 HD
ENDBRANCH   9  19
BRANCH   7  21
ATOM     21  O   UNL     1      -4.636   7.456  27.051  0.00  0.00    -0.343 OA
ATOM     22  C   UNL     1      -5.132   7.718  25.714  0.00  0.00    +0.198 C 
ENDBRANCH   7  21
ENDBRANCH   4   5
BRANCH   4  23
ATOM     23  O   UNL     1      -5.214  12.630  27.048  0.00  0.00    -0.387 OA
ATOM     24  H   UNL     1      -5.483  12.190  27.858  0.00  0.00    +0.210 HD
ENDBRANCH   4  23
ENDBRANCH   1   4
BRANCH   1  25
ATOM     25  C   UNL     1      -3.714  13.084  24.335  0.00  0.00    +0.141 C 
BRANCH  25  28
ATOM     26  C   UNL     1      -4.020  12.436  21.971  0.00  0.00    +0.401 C 
ATOM     27  O   UNL     1      -2.943  11.840  21.897  0.00  0.00    -0.226 OA
ATOM     28  N   UNL     1      -4.458  13.051  23.070  0.00  0.00    -0.279 N 
ATOM     29  H   UNL     1      -5.351  13.521  23.029  0.00  0.00    +0.152 HD
BRANCH  26  30
ATOM     30  O   UNL     1      -4.866  12.486  20.819  0.00  0.00    -0.444 OA
BRANCH  30  31
ATOM     31  C   UNL     1      -5.568  11.247  20.687  0.00  0.00    +0.292 C 
BRANCH  31  33
ATOM     32  N   UNL     1      -4.931   9.149  19.521  0.00  0.00    -0.131 NA
ATOM     33  C   UNL     1      -5.104  10.508  19.496  0.00  0.00    +0.120 A 
ATOM     34  C   UNL     1      -4.863  10.968  18.220  0.00  0.00    +0.137 A 
ATOM     35  N   UNL     1      -4.731   9.823  17.486  0.00  0.00    -0.251 N 
ATOM     36  N   UNL     1      -4.676   8.742  18.285  0.00  0.00    -0.065 NA
BRANCH  35  37
ATOM     37  C   UNL     1      -4.976   9.667  16.066  0.00  0.00    +0.149 C 
BRANCH  37  38
ATOM     38  C   UNL     1      -3.716   9.586  15.177  0.00  0.00    +0.021 C 
BRANCH  38  39
ATOM     39  C   UNL     1      -2.793   8.401  15.527  0.00  0.00    +0.125 C 
BRANCH  39  40
ATOM     40  C   UNL     1      -1.523   8.321  14.705  0.00  0.00    +0.305 C 
ATOM     41  O   UNL     1      -1.482   8.232  13.489  0.00  0.00    -0.251 OA
BRANCH  40  42
ATOM     42  O   UNL     1      -0.407   8.424  15.450  0.00  0.00    -0.481 OA
ATOM     43  H   UNL     1       0.197   9.147  15.203  0.00  0.00    +0.295 HD
ENDBRANCH  40  42
ENDBRANCH  39  40
ENDBRANCH  38  39
BRANCH  38  44
ATOM     44  C   UNL     1      -2.982  10.959  15.208  0.00  0.00    +0.009 C 
BRANCH  44  45
ATOM     45  C   UNL     1      -3.712  12.130  14.518  0.00  0.00    -0.017 C 
ATOM     46  C   UNL     1      -3.896  13.328  15.452  0.00  0.00    +0.007 C 
ATOM     47  C   UNL     1      -2.945  12.583  13.270  0.00  0.00    +0.007 C 
ENDBRANCH  44  45
ENDBRANCH  38  44
ENDBRANCH  37  38
ENDBRANCH  35  37
ENDBRANCH  31  33
ENDBRANCH  30  31
ENDBRANCH  26  30
ENDBRANCH  25  28
ENDBRANCH   1  25
TORSDOF 20
