REMARK VINA RESULT:    -3.879      2.359      7.607
REMARK INTER + INTRA:         -10.442
REMARK INTER:                  -5.793
REMARK INTRA:                  -4.649
REMARK UNBOUND:                -3.048
REMARK  Name = lig_assembled_50.pdb
REMARK  20 active torsions:
REMARK  status: ('A' for Active; 'I' for Inactive)
REMARK    1  A    between atoms: _2  and  _9
REMARK    2  A    between atoms: _4  and  _17
REMARK    3  A    between atoms: _5  and  _10
REMARK    4  A    between atoms: _5  and  _11
REMARK    5  A    between atoms: _6  and  _7
REMARK    6  A    between atoms: _6  and  _17
REMARK    7  A    between atoms: _9  and  _10
REMARK    8  A    between atoms: _10  and  _12
REMARK    9  A    between atoms: _13  and  _33
REMARK   10  A    between atoms: _15  and  _21
REMARK   11  A    between atoms: _16  and  _20
REMARK   12  A    between atoms: _20  and  _21
REMARK   13  A    between atoms: _23  and  _24
REMARK   14  A    between atoms: _25  and  _26
REMARK   15  A    between atoms: _27  and  _29
REMARK   16  A    between atoms: _29  and  _30
REMARK   17  A    between atoms: _29  and  _31
REMARK   18  A    between atoms: _31  and  _32
REMARK   19  A    between atoms: _31  and  _33
REMARK   20  A    between atoms: _34  and  _36
REMARK                            x       y       z     vdW  Elec       q    Type
REMARK                         _______ _______ _______ _____ _____    ______ ____
ROOT
ATOM      1  C   UNL     1      -3.997   7.615  23.742  0.00  0.00    +0.163 C 
ENDROOT
BRANCH   1   2
ATOM      2  O   UNL     1      -4.139   7.317  22.344  0.00  0.00    -0.388 OA
ATOM      3  H   UNL     1      -3.473   6.677  22.083  0.00  0.00    +0.210 HD
ENDBRANCH   1   2
BRANCH   1   4
ATOM      4  C   UNL     1      -4.900   8.792  24.149  0.00  0.00    +0.175 C 
BRANCH   4   5
ATOM      5  C   UNL     1      -5.166   9.748  22.976  0.00  0.00    +0.176 C 
ATOM      6  O   UNL     1      -4.736  11.078  23.377  0.00  0.00    -0.332 OA
ATOM      7  C   UNL     1      -4.817  12.110  22.339  0.00  0.00    +0.277 C 
ATOM      8  C   UNL     1      -6.249  12.178  21.753  0.00  0.00    +0.110 C 
ATOM      9  C   UNL     1      -6.762  10.782  21.342  0.00  0.00    +0.143 C 
ATOM     10  C   UNL     1      -6.629   9.787  22.495  0.00  0.00    +0.133 C 
BRANCH  10  11
ATOM     11  N   UNL     1      -7.040   8.441  22.065  0.00  0.00    -0.308 N 
ATOM     12  H   UNL     1      -6.548   8.024  21.287  0.00  0.00    +0.149 HD
ATOM     13  C   UNL     1      -8.021   7.736  22.634  0.00  0.00    +0.210 C 
ATOM     14  C   UNL     1      -8.769   8.410  23.799  0.00  0.00    +0.109 C 
ATOM     15  O   UNL     1      -8.334   6.604  22.261  0.00  0.00    -0.276 OA
ENDBRANCH  10  11
BRANCH   7  16
ATOM     16  C   UNL     1      -3.809  11.826  21.205  0.00  0.00    +0.414 C 
ATOM     17  O   UNL     1      -4.046  12.200  20.057  0.00  0.00    -0.240 OA
ATOM     18  O   UNL     1      -2.761  11.223  21.438  0.00  0.00    -0.240 OA
ENDBRANCH   7  16
BRANCH   9  19
ATOM     19  O   UNL     1      -8.133  10.869  20.952  0.00  0.00    -0.390 OA
ATOM     20  H   UNL     1      -8.641  11.282  21.654  0.00  0.00    +0.210 HD
ENDBRANCH   9  19
BRANCH   7  21
ATOM     21  O   UNL     1      -4.513  13.389  22.953  0.00  0.00    -0.343 OA
ATOM     22  C   UNL     1      -5.331  14.496  22.498  0.00  0.00    +0.198 C 
ENDBRANCH   7  21
ENDBRANCH   4   5
BRANCH   4  23
ATOM     23  O   UNL     1      -4.313   9.511  25.252  0.00  0.00    -0.387 OA
ATOM     24  H   UNL     1      -4.963  10.113  25.624  0.00  0.00    +0.210 HD
ENDBRANCH   4  23
ENDBRANCH   1   4
BRANCH   1  25
ATOM     25  C   UNL     1      -4.353   6.389  24.576  0.00  0.00    +0.141 C 
BRANCH  25  28
ATOM     26  C   UNL     1      -3.053   6.378  26.678  0.00  0.00    +0.401 C 
ATOM     27  O   UNL     1      -2.042   5.897  26.160  0.00  0.00    -0.226 OA
ATOM     28  N   UNL     1      -4.180   6.635  26.013  0.00  0.00    -0.279 N 
ATOM     29  H   UNL     1      -4.960   7.021  26.527  0.00  0.00    +0.152 HD
BRANCH  26  30
ATOM     30  O   UNL     1      -3.040   6.683  28.075  0.00  0.00    -0.444 OA
BRANCH  30  31
ATOM     31  C   UNL     1      -1.941   7.551  28.364  0.00  0.00    +0.292 C 
BRANCH  31  33
ATOM     32  N   UNL     1      -1.695   9.626  27.031  0.00  0.00    -0.131 NA
ATOM     33  C   UNL     1      -2.297   8.952  28.064  0.00  0.00    +0.120 A 
ATOM     34  C   UNL     1      -3.212   9.786  28.674  0.00  0.00    +0.137 A 
ATOM     35  N   UNL     1      -3.111  10.946  27.975  0.00  0.00    -0.249 N 
ATOM     36  N   UNL     1      -2.212  10.843  26.977  0.00  0.00    -0.065 NA
BRANCH  35  37
ATOM     37  C   UNL     1      -3.818  12.188  28.190  0.00  0.00    +0.178 C 
BRANCH  37  38
ATOM     38  C   UNL     1      -4.752  12.584  27.040  0.00  0.00    +0.161 C 
BRANCH  38  39
ATOM     39  O   UNL     1      -4.114  12.511  25.762  0.00  0.00    -0.388 OA
ATOM     40  H   UNL     1      -3.763  13.397  25.538  0.00  0.00    +0.210 HD
ENDBRANCH  38  39
BRANCH  38  41
ATOM     41  C   UNL     1      -6.062  11.787  27.011  0.00  0.00    +0.189 C 
BRANCH  41  42
ATOM     42  O   UNL     1      -6.517  11.583  25.674  0.00  0.00    -0.392 OA
ATOM     43  H   UNL     1      -6.595  10.622  25.522  0.00  0.00    +0.210 HD
ENDBRANCH  41  42
ENDBRANCH  38  41
ENDBRANCH  37  38
ENDBRANCH  35  37
ENDBRANCH  31  33
ENDBRANCH  30  31
ENDBRANCH  26  30
ENDBRANCH  25  28
ENDBRANCH   1  25
TORSDOF 18
