REMARK VINA RESULT:    -4.883      5.578     10.571
REMARK INTER + INTRA:         -12.484
REMARK INTER:                 -10.020
REMARK INTRA:                  -2.465
REMARK UNBOUND:                -3.320
REMARK  Name = lig_assembled_16.pdb
REMARK  19 active torsions:
REMARK  status: ('A' for Active; 'I' for Inactive)
REMARK    1  A    between atoms: _2  and  _9
REMARK    2  A    between atoms: _4  and  _22
REMARK    3  A    between atoms: _6  and  _7
REMARK    4  A    between atoms: _6  and  _22
REMARK    5  A    between atoms: _9  and  _10
REMARK    6  A    between atoms: _13  and  _14
REMARK    7  A    between atoms: _14  and  _16
REMARK    8  A    between atoms: _18  and  _38
REMARK    9  A    between atoms: _20  and  _26
REMARK   10  A    between atoms: _21  and  _25
REMARK   11  A    between atoms: _25  and  _26
REMARK   12  A    between atoms: _28  and  _29
REMARK   13  A    between atoms: _30  and  _31
REMARK   14  A    between atoms: _32  and  _34
REMARK   15  A    between atoms: _34  and  _35
REMARK   16  A    between atoms: _34  and  _36
REMARK   17  A    between atoms: _36  and  _37
REMARK   18  A    between atoms: _36  and  _38
REMARK   19  A    between atoms: _39  and  _41
REMARK                            x       y       z     vdW  Elec       q    Type
REMARK                         _______ _______ _______ _____ _____    ______ ____
ROOT
ATOM      1  C   UNL     1      -6.052   9.727  22.540  0.00  0.00    +0.163 C 
ENDROOT
BRANCH   1   2
ATOM      2  O   UNL     1      -6.997   9.323  23.544  0.00  0.00    -0.388 OA
ATOM      3  H   UNL     1      -7.206  10.072  24.107  0.00  0.00    +0.210 HD
ENDBRANCH   1   2
BRANCH   1   4
ATOM      4  C   UNL     1      -4.702   9.017  22.737  0.00  0.00    +0.175 C 
BRANCH   4   5
ATOM      5  C   UNL     1      -3.835   9.708  23.801  0.00  0.00    +0.176 C 
ATOM      6  O   UNL     1      -4.371   9.361  25.107  0.00  0.00    -0.332 OA
ATOM      7  C   UNL     1      -3.602   9.849  26.257  0.00  0.00    +0.277 C 
ATOM      8  C   UNL     1      -3.403  11.382  26.163  0.00  0.00    +0.110 C 
ATOM      9  C   UNL     1      -2.865  11.802  24.779  0.00  0.00    +0.143 C 
ATOM     10  C   UNL     1      -3.737  11.238  23.657  0.00  0.00    +0.133 C 
BRANCH  10  11
ATOM     11  N   UNL     1      -3.166  11.573  22.343  0.00  0.00    -0.308 N 
ATOM     12  H   UNL     1      -2.343  11.067  22.044  0.00  0.00    +0.149 HD
ATOM     13  C   UNL     1      -3.662  12.500  21.520  0.00  0.00    +0.210 C 
ATOM     14  C   UNL     1      -4.900  13.271  22.016  0.00  0.00    +0.109 C 
ATOM     15  O   UNL     1      -3.171  12.749  20.418  0.00  0.00    -0.276 OA
ENDBRANCH  10  11
BRANCH   7  16
ATOM     16  C   UNL     1      -2.227   9.153  26.331  0.00  0.00    +0.414 C 
ATOM     17  O   UNL     1      -2.146   7.929  26.245  0.00  0.00    -0.240 OA
ATOM     18  O   UNL     1      -1.199   9.816  26.475  0.00  0.00    -0.240 OA
ENDBRANCH   7  16
BRANCH   7  19
ATOM     19  O   UNL     1      -4.361   9.559  27.459  0.00  0.00    -0.343 OA
ATOM     20  C   UNL     1      -5.779   9.339  27.250  0.00  0.00    +0.198 C 
ENDBRANCH   7  19
BRANCH   9  21
ATOM     21  O   UNL     1      -2.840  13.227  24.685  0.00  0.00    -0.390 OA
ATOM     22  H   UNL     1      -1.964  13.515  24.419  0.00  0.00    +0.210 HD
ENDBRANCH   9  21
ENDBRANCH   4   5
BRANCH   4  23
ATOM     23  O   UNL     1      -3.990   8.947  21.485  0.00  0.00    -0.387 OA
ATOM     24  H   UNL     1      -3.944   8.034  21.194  0.00  0.00    +0.210 HD
ENDBRANCH   4  23
ENDBRANCH   1   4
BRANCH   1  25
ATOM     25  C   UNL     1      -6.598   9.408  21.152  0.00  0.00    +0.141 C 
BRANCH  25  28
ATOM     26  C   UNL     1      -5.519  10.336  19.132  0.00  0.00    +0.401 C 
ATOM     27  O   UNL     1      -4.930   9.290  18.851  0.00  0.00    -0.226 OA
ATOM     28  N   UNL     1      -6.315  10.482  20.192  0.00  0.00    -0.279 N 
ATOM     29  H   UNL     1      -6.747  11.383  20.344  0.00  0.00    +0.152 HD
BRANCH  26  30
ATOM     30  O   UNL     1      -5.352  11.477  18.285  0.00  0.00    -0.444 OA
BRANCH  30  31
ATOM     31  C   UNL     1      -5.940  11.214  17.008  0.00  0.00    +0.292 C 
BRANCH  31  33
ATOM     32  N   UNL     1      -3.664  11.047  16.043  0.00  0.00    -0.131 NA
ATOM     33  C   UNL     1      -4.963  11.470  15.934  0.00  0.00    +0.120 A 
ATOM     34  C   UNL     1      -5.134  12.092  14.717  0.00  0.00    +0.137 A 
ATOM     35  N   UNL     1      -3.930  11.929  14.099  0.00  0.00    -0.247 N 
ATOM     36  N   UNL     1      -3.032  11.348  14.916  0.00  0.00    -0.065 NA
BRANCH  35  37
ATOM     37  C   UNL     1      -3.573  12.275  12.738  0.00  0.00    +0.180 C 
BRANCH  37  38
ATOM     38  C   UNL     1      -2.509  13.348  12.704  0.00  0.00    -0.026 A 
ATOM     39  C   UNL     1      -1.285  13.123  12.057  0.00  0.00    +0.006 A 
ATOM     40  C   UNL     1      -0.320  14.132  11.996  0.00  0.00    +0.015 A 
ATOM     41  C   UNL     1      -0.558  15.373  12.591  0.00  0.00    +0.059 A 
ATOM     42  C   UNL     1      -1.769  15.603  13.260  0.00  0.00    +0.015 A 
ATOM     43  C   UNL     1      -2.730  14.589  13.324  0.00  0.00    +0.006 A 
BRANCH  41  44
ATOM     44  C   UNL     1       0.472  16.435  12.433  0.00  0.00    +0.337 C 
ATOM     45  O   UNL     1       1.668  16.195  12.448  0.00  0.00    -0.245 OA
BRANCH  44  46
ATOM     46  O   UNL     1      -0.031  17.677  12.309  0.00  0.00    -0.477 OA
ATOM     47  H   UNL     1       0.518  18.298  11.795  0.00  0.00    +0.295 HD
ENDBRANCH  44  46
ENDBRANCH  41  44
ENDBRANCH  37  38
ENDBRANCH  35  37
ENDBRANCH  31  33
ENDBRANCH  30  31
ENDBRANCH  26  30
ENDBRANCH  25  28
ENDBRANCH   1  25
TORSDOF 17
