REMARK VINA RESULT:    -5.307      2.746      5.749
REMARK INTER + INTRA:         -12.365
REMARK INTER:                  -7.820
REMARK INTRA:                  -4.545
REMARK UNBOUND:                -2.869
REMARK  Name = lig_assembled_71.pdb
REMARK  17 active torsions:
REMARK  status: ('A' for Active; 'I' for Inactive)
REMARK    1  A    between atoms: _2  and  _12
REMARK    2  A    between atoms: _7  and  _22
REMARK    3  A    between atoms: _9  and  _10
REMARK    4  A    between atoms: _9  and  _22
REMARK    5  A    between atoms: _12  and  _13
REMARK    6  A    between atoms: _18  and  _38
REMARK    7  A    between atoms: _20  and  _26
REMARK    8  A    between atoms: _21  and  _25
REMARK    9  A    between atoms: _25  and  _26
REMARK   10  A    between atoms: _28  and  _29
REMARK   11  A    between atoms: _30  and  _31
REMARK   12  A    between atoms: _32  and  _34
REMARK   13  A    between atoms: _34  and  _35
REMARK   14  A    between atoms: _34  and  _36
REMARK   15  A    between atoms: _36  and  _37
REMARK   16  A    between atoms: _36  and  _38
REMARK   17  A    between atoms: _39  and  _41
REMARK                            x       y       z     vdW  Elec       q    Type
REMARK                         _______ _______ _______ _____ _____    ______ ____
ROOT
ATOM      1  C   UNL     1      -3.660  11.170  22.444  0.00  0.00    +0.163 C 
ENDROOT
BRANCH   1   2
ATOM      2  O   UNL     1      -3.291  12.054  23.515  0.00  0.00    -0.388 OA
ATOM      3  H   UNL     1      -3.632  12.933  23.337  0.00  0.00    +0.210 HD
ENDBRANCH   1   2
BRANCH   1   4
ATOM      4  C   UNL     1      -4.778  11.793  21.615  0.00  0.00    +0.141 C 
BRANCH   4   7
ATOM      5  C   UNL     1      -6.379  13.666  21.804  0.00  0.00    +0.401 C 
ATOM      6  O   UNL     1      -6.680  13.653  20.608  0.00  0.00    -0.226 OA
ATOM      7  N   UNL     1      -5.495  12.837  22.359  0.00  0.00    -0.279 N 
ATOM      8  H   UNL     1      -5.307  12.932  23.347  0.00  0.00    +0.152 HD
BRANCH   5   9
ATOM      9  O   UNL     1      -7.000  14.624  22.666  0.00  0.00    -0.444 OA
BRANCH   9  10
ATOM     10  C   UNL     1      -6.014  15.202  23.525  0.00  0.00    +0.292 C 
BRANCH  10  12
ATOM     11  N   UNL     1      -5.131  13.564  25.169  0.00  0.00    -0.131 NA
ATOM     12  C   UNL     1      -6.034  14.544  24.845  0.00  0.00    +0.120 A 
ATOM     13  C   UNL     1      -6.870  14.753  25.917  0.00  0.00    +0.137 A 
ATOM     14  N   UNL     1      -6.438  13.863  26.857  0.00  0.00    -0.242 N 
ATOM     15  N   UNL     1      -5.383  13.160  26.408  0.00  0.00    -0.065 NA
BRANCH  14  16
ATOM     16  C   UNL     1      -6.890  13.700  28.224  0.00  0.00    +0.241 C 
BRANCH  16  17
ATOM     17  C   UNL     1      -5.779  13.236  29.128  0.00  0.00    +0.241 C 
ATOM     18  O   UNL     1      -4.922  14.032  29.510  0.00  0.00    -0.273 OA
ATOM     19  N   UNL     1      -5.785  11.883  29.396  0.00  0.00    -0.253 N 
ATOM     20  H   UNL     1      -6.383  11.240  28.901  0.00  0.00    +0.158 HD
ATOM     21  C   UNL     1      -4.864  11.253  30.225  0.00  0.00    +0.221 A 
ATOM     22  N   UNL     1      -4.839   9.914  30.142  0.00  0.00    -0.223 NA
ATOM     23  C   UNL     1      -3.899   9.290  30.885  0.00  0.00    +0.116 A 
ATOM     24  C   UNL     1      -3.020   9.945  31.714  0.00  0.00    +0.039 A 
ATOM     25  C   UNL     1      -3.163  11.306  31.759  0.00  0.00    +0.116 A 
ATOM     26  N   UNL     1      -4.072  11.970  31.028  0.00  0.00    -0.223 NA
ENDBRANCH  16  17
ENDBRANCH  14  16
ENDBRANCH  10  12
ENDBRANCH   9  10
ENDBRANCH   5   9
ENDBRANCH   4   7
ENDBRANCH   1   4
BRANCH   1  27
ATOM     27  C   UNL     1      -4.123   9.808  22.990  0.00  0.00    +0.175 C 
BRANCH  27  28
ATOM     28  C   UNL     1      -4.023   9.734  24.521  0.00  0.00    +0.176 C 
ATOM     29  O   UNL     1      -3.181   8.598  24.860  0.00  0.00    -0.332 OA
ATOM     30  C   UNL     1      -2.885   8.432  26.286  0.00  0.00    +0.277 C 
ATOM     31  C   UNL     1      -4.195   8.376  27.108  0.00  0.00    +0.110 C 
ATOM     32  C   UNL     1      -5.137   9.547  26.759  0.00  0.00    +0.143 C 
ATOM     33  C   UNL     1      -5.375   9.629  25.250  0.00  0.00    +0.133 C 
BRANCH  33  34
ATOM     34  N   UNL     1      -6.203  10.800  24.922  0.00  0.00    -0.308 N 
ATOM     35  H   UNL     1      -5.817  11.716  25.101  0.00  0.00    +0.149 HD
ATOM     36  C   UNL     1      -7.432  10.732  24.403  0.00  0.00    +0.210 C 
ATOM     37  C   UNL     1      -8.003   9.321  24.166  0.00  0.00    +0.109 C 
ATOM     38  O   UNL     1      -8.097  11.730  24.124  0.00  0.00    -0.276 OA
ENDBRANCH  33  34
BRANCH  30  39
ATOM     39  C   UNL     1      -2.003   9.589  26.799  0.00  0.00    +0.414 C 
ATOM     40  O   UNL     1      -2.360  10.258  27.768  0.00  0.00    -0.240 OA
ATOM     41  O   UNL     1      -0.935   9.854  26.245  0.00  0.00    -0.240 OA
ENDBRANCH  30  39
BRANCH  30  42
ATOM     42  O   UNL     1      -2.184   7.172  26.455  0.00  0.00    -0.343 OA
ATOM     43  C   UNL     1      -2.305   6.577  27.771  0.00  0.00    +0.198 C 
ENDBRANCH  30  42
BRANCH  32  44
ATOM     44  O   UNL     1      -6.389   9.374  27.424  0.00  0.00    -0.390 OA
ATOM     45  H   UNL     1      -7.024   8.988  26.816  0.00  0.00    +0.210 HD
ENDBRANCH  32  44
ENDBRANCH  27  28
BRANCH  27  46
ATOM     46  O   UNL     1      -3.355   8.746  22.390  0.00  0.00    -0.387 OA
ATOM     47  H   UNL     1      -2.837   9.097  21.662  0.00  0.00    +0.210 HD
ENDBRANCH  27  46
ENDBRANCH   1  27
TORSDOF 15
