REMARK VINA RESULT:    -4.667      4.042      5.892
REMARK INTER + INTRA:         -11.194
REMARK INTER:                  -8.673
REMARK INTRA:                  -2.521
REMARK UNBOUND:                -2.844
REMARK  Name = lig_assembled_44.pdb
REMARK  17 active torsions:
REMARK  status: ('A' for Active; 'I' for Inactive)
REMARK    1  A    between atoms: _2  and  _9
REMARK    2  A    between atoms: _4  and  _19
REMARK    3  A    between atoms: _6  and  _7
REMARK    4  A    between atoms: _6  and  _19
REMARK    5  A    between atoms: _9  and  _10
REMARK    6  A    between atoms: _15  and  _35
REMARK    7  A    between atoms: _17  and  _23
REMARK    8  A    between atoms: _18  and  _22
REMARK    9  A    between atoms: _22  and  _23
REMARK   10  A    between atoms: _25  and  _26
REMARK   11  A    between atoms: _27  and  _28
REMARK   12  A    between atoms: _29  and  _31
REMARK   13  A    between atoms: _31  and  _32
REMARK   14  A    between atoms: _31  and  _33
REMARK   15  A    between atoms: _33  and  _34
REMARK   16  A    between atoms: _33  and  _35
REMARK   17  A    between atoms: _36  and  _38
REMARK                            x       y       z     vdW  Elec       q    Type
REMARK                         _______ _______ _______ _____ _____    ______ ____
ROOT
ATOM      1  C   UNL     1      -6.043  12.043  25.520  0.00  0.00    +0.163 C 
ENDROOT
BRANCH   1   2
ATOM      2  O   UNL     1      -5.801  11.095  24.468  0.00  0.00    -0.388 OA
ATOM      3  H   UNL     1      -5.967  11.511  23.618  0.00  0.00    +0.210 HD
ENDBRANCH   1   2
BRANCH   1   4
ATOM      4  C   UNL     1      -4.964  13.121  25.510  0.00  0.00    +0.141 C 
BRANCH   4   7
ATOM      5  C   UNL     1      -4.329  13.821  23.227  0.00  0.00    +0.401 C 
ATOM      6  O   UNL     1      -5.230  14.657  23.132  0.00  0.00    -0.226 OA
ATOM      7  N   UNL     1      -4.134  13.054  24.301  0.00  0.00    -0.279 N 
ATOM      8  H   UNL     1      -3.373  12.390  24.281  0.00  0.00    +0.152 HD
BRANCH   5   9
ATOM      9  O   UNL     1      -3.428  13.642  22.131  0.00  0.00    -0.444 OA
BRANCH   9  10
ATOM     10  C   UNL     1      -2.936  12.300  22.132  0.00  0.00    +0.292 C 
BRANCH  10  12
ATOM     11  N   UNL     1      -4.240  10.253  21.628  0.00  0.00    -0.131 NA
ATOM     12  C   UNL     1      -3.733  11.458  21.219  0.00  0.00    +0.120 A 
ATOM     13  C   UNL     1      -4.110  11.687  19.916  0.00  0.00    +0.137 A 
ATOM     14  N   UNL     1      -4.910  10.623  19.615  0.00  0.00    -0.247 N 
ATOM     15  N   UNL     1      -4.953   9.744  20.632  0.00  0.00    -0.065 NA
BRANCH  14  16
ATOM     16  C   UNL     1      -5.657  10.379  18.397  0.00  0.00    +0.180 C 
BRANCH  16  17
ATOM     17  C   UNL     1      -4.755   9.917  17.278  0.00  0.00    -0.026 A 
ATOM     18  C   UNL     1      -4.177  10.843  16.395  0.00  0.00    +0.006 A 
ATOM     19  C   UNL     1      -3.356  10.412  15.351  0.00  0.00    +0.015 A 
ATOM     20  C   UNL     1      -3.109   9.051  15.183  0.00  0.00    +0.018 A 
ATOM     21 BR   UNL     1      -1.983   8.470  13.779  0.00  0.00    -0.050 Br
ATOM     22  C   UNL     1      -3.684   8.117  16.041  0.00  0.00    +0.015 A 
ATOM     23  C   UNL     1      -4.510   8.548  17.083  0.00  0.00    +0.006 A 
ENDBRANCH  16  17
ENDBRANCH  14  16
ENDBRANCH  10  12
ENDBRANCH   9  10
ENDBRANCH   5   9
ENDBRANCH   4   7
ENDBRANCH   1   4
BRANCH   1  24
ATOM     24  C   UNL     1      -6.062  11.348  26.892  0.00  0.00    +0.175 C 
BRANCH  24  25
ATOM     25  C   UNL     1      -4.687  10.779  27.272  0.00  0.00    +0.176 C 
ATOM     26  O   UNL     1      -4.449   9.602  26.452  0.00  0.00    -0.332 OA
ATOM     27  C   UNL     1      -3.129   8.982  26.602  0.00  0.00    +0.277 C 
ATOM     28  C   UNL     1      -2.854   8.648  28.089  0.00  0.00    +0.110 C 
ATOM     29  C   UNL     1      -3.125   9.861  29.004  0.00  0.00    +0.143 C 
ATOM     30  C   UNL     1      -4.524  10.429  28.763  0.00  0.00    +0.133 C 
BRANCH  30  31
ATOM     31  N   UNL     1      -4.738  11.635  29.577  0.00  0.00    -0.308 N 
ATOM     32  H   UNL     1      -4.133  12.428  29.414  0.00  0.00    +0.149 HD
ATOM     33  C   UNL     1      -5.679  11.751  30.518  0.00  0.00    +0.210 C 
ATOM     34  C   UNL     1      -6.568  10.517  30.760  0.00  0.00    +0.109 C 
ATOM     35  O   UNL     1      -5.845  12.780  31.175  0.00  0.00    -0.276 OA
ENDBRANCH  30  31
BRANCH  27  36
ATOM     36  C   UNL     1      -2.022   9.916  26.070  0.00  0.00    +0.414 C 
ATOM     37  O   UNL     1      -2.248  10.670  25.125  0.00  0.00    -0.240 OA
ATOM     38  O   UNL     1      -0.903   9.915  26.586  0.00  0.00    -0.240 OA
ENDBRANCH  27  36
BRANCH  27  39
ATOM     39  O   UNL     1      -3.127   7.743  25.847  0.00  0.00    -0.343 OA
ATOM     40  C   UNL     1      -2.402   6.650  26.466  0.00  0.00    +0.198 C 
ENDBRANCH  27  39
BRANCH  29  41
ATOM     41  O   UNL     1      -3.006   9.468  30.372  0.00  0.00    -0.390 OA
ATOM     42  H   UNL     1      -2.607  10.180  30.877  0.00  0.00    +0.210 HD
ENDBRANCH  29  41
ENDBRANCH  24  25
BRANCH  24  43
ATOM     43  O   UNL     1      -7.054  10.301  26.905  0.00  0.00    -0.387 OA
ATOM     44  H   UNL     1      -7.589  10.376  27.699  0.00  0.00    +0.210 HD
ENDBRANCH  24  43
ENDBRANCH   1  24
TORSDOF 15
