REMARK VINA RESULT:    -5.109      3.788     11.826
REMARK INTER + INTRA:         -11.588
REMARK INTER:                  -9.161
REMARK INTRA:                  -2.427
REMARK UNBOUND:                -2.447
REMARK  Name = lig_assembled_85.pdb
REMARK  19 active torsions:
REMARK  status: ('A' for Active; 'I' for Inactive)
REMARK    1  A    between atoms: _2  and  _10
REMARK    2  A    between atoms: _3  and  _6
REMARK    3  A    between atoms: _3  and  _17
REMARK    4  A    between atoms: _5  and  _23
REMARK    5  A    between atoms: _7  and  _8
REMARK    6  A    between atoms: _7  and  _23
REMARK    7  A    between atoms: _15  and  _16
REMARK    8  A    between atoms: _19  and  _39
REMARK    9  A    between atoms: _21  and  _27
REMARK   10  A    between atoms: _22  and  _26
REMARK   11  A    between atoms: _26  and  _27
REMARK   12  A    between atoms: _29  and  _30
REMARK   13  A    between atoms: _31  and  _32
REMARK   14  A    between atoms: _33  and  _35
REMARK   15  A    between atoms: _35  and  _36
REMARK   16  A    between atoms: _35  and  _37
REMARK   17  A    between atoms: _37  and  _38
REMARK   18  A    between atoms: _37  and  _39
REMARK   19  A    between atoms: _40  and  _42
REMARK                            x       y       z     vdW  Elec       q    Type
REMARK                         _______ _______ _______ _____ _____    ______ ____
ROOT
ATOM      1  C   UNL     1      -6.404  10.946  17.983  0.00  0.00    +0.141 C 
ENDROOT
BRANCH   1   4
ATOM      2  C   UNL     1      -4.771  11.099  19.832  0.00  0.00    +0.401 C 
ATOM      3  O   UNL     1      -4.619   9.879  19.924  0.00  0.00    -0.226 OA
ATOM      4  N   UNL     1      -5.590  11.684  18.957  0.00  0.00    -0.279 N 
ATOM      5  H   UNL     1      -5.654  12.693  18.964  0.00  0.00    +0.152 HD
BRANCH   2   6
ATOM      6  O   UNL     1      -4.039  11.958  20.709  0.00  0.00    -0.444 OA
BRANCH   6   7
ATOM      7  C   UNL     1      -3.142  11.178  21.503  0.00  0.00    +0.292 C 
BRANCH   7   9
ATOM      8  N   UNL     1      -4.906  11.200  23.230  0.00  0.00    -0.131 NA
ATOM      9  C   UNL     1      -3.579  11.174  22.910  0.00  0.00    +0.121 A 
ATOM     10  C   UNL     1      -2.833  11.091  24.064  0.00  0.00    +0.143 A 
ATOM     11  N   UNL     1      -3.761  11.065  25.076  0.00  0.00    -0.219 N 
ATOM     12  N   UNL     1      -5.008  11.105  24.548  0.00  0.00    -0.060 NA
BRANCH  11  13
ATOM     13  C   UNL     1      -3.573  10.912  26.467  0.00  0.00    +0.080 A 
ATOM     14  C   UNL     1      -3.265   9.693  27.092  0.00  0.00    +0.062 A 
ATOM     15  C   UNL     1      -3.353   9.639  28.503  0.00  0.00    +0.016 A 
ATOM     16  C   UNL     1      -3.707  10.756  29.266  0.00  0.00    +0.021 A 
ATOM     17  C   UNL     1      -3.935  11.969  28.634  0.00  0.00    +0.043 A 
ATOM     18 CL   UNL     1      -4.406  13.344  29.553  0.00  0.00    -0.083 Cl
ATOM     19  C   UNL     1      -3.843  12.059  27.248  0.00  0.00    +0.048 A 
BRANCH  14  20
ATOM     20  C   UNL     1      -2.923   8.384  26.462  0.00  0.00    +0.248 C 
ATOM     21  O   UNL     1      -1.719   8.111  26.446  0.00  0.00    -0.270 OA
ATOM     22  N   UNL     1      -3.862   7.537  25.863  0.00  0.00    -0.304 N 
ATOM     23  C   UNL     1      -5.314   7.642  25.904  0.00  0.00    +0.132 C 
ATOM     24  C   UNL     1      -3.344   6.300  25.286  0.00  0.00    +0.132 C 
ENDBRANCH  14  20
ENDBRANCH  11  13
ENDBRANCH   7   9
ENDBRANCH   6   7
ENDBRANCH   2   6
ENDBRANCH   1   4
BRANCH   1  25
ATOM     25  C   UNL     1      -5.717  10.849  16.625  0.00  0.00    +0.163 C 
BRANCH  25  26
ATOM     26  O   UNL     1      -4.808  11.949  16.454  0.00  0.00    -0.388 OA
ATOM     27  H   UNL     1      -3.905  11.637  16.551  0.00  0.00    +0.210 HD
ENDBRANCH  25  26
BRANCH  25  28
ATOM     28  C   UNL     1      -4.979   9.503  16.518  0.00  0.00    +0.175 C 
BRANCH  28  29
ATOM     29  C   UNL     1      -4.043   9.453  15.301  0.00  0.00    +0.176 C 
ATOM     30  O   UNL     1      -4.727  10.085  14.184  0.00  0.00    -0.332 OA
ATOM     31  C   UNL     1      -3.941  10.224  12.955  0.00  0.00    +0.277 C 
ATOM     32  C   UNL     1      -3.378   8.851  12.515  0.00  0.00    +0.110 C 
ATOM     33  C   UNL     1      -2.668   8.126  13.678  0.00  0.00    +0.143 C 
ATOM     34  C   UNL     1      -3.576   8.040  14.905  0.00  0.00    +0.133 C 
BRANCH  34  35
ATOM     35  N   UNL     1      -2.859   7.426  16.034  0.00  0.00    -0.308 N 
ATOM     36  H   UNL     1      -2.116   7.957  16.466  0.00  0.00    +0.149 HD
ATOM     37  C   UNL     1      -3.125   6.212  16.524  0.00  0.00    +0.210 C 
ATOM     38  C   UNL     1      -4.245   5.417  15.826  0.00  0.00    +0.109 C 
ATOM     39  O   UNL     1      -2.517   5.729  17.480  0.00  0.00    -0.276 OA
ENDBRANCH  34  35
BRANCH  31  40
ATOM     40  C   UNL     1      -2.777  11.217  13.160  0.00  0.00    +0.414 C 
ATOM     41  O   UNL     1      -2.792  12.003  14.107  0.00  0.00    -0.240 OA
ATOM     42  O   UNL     1      -1.824  11.231  12.380  0.00  0.00    -0.240 OA
ENDBRANCH  31  40
BRANCH  33  43
ATOM     43  O   UNL     1      -2.300   6.808  13.271  0.00  0.00    -0.390 OA
ATOM     44  H   UNL     1      -2.670   6.168  13.884  0.00  0.00    +0.210 HD
ENDBRANCH  33  43
BRANCH  31  45
ATOM     45  O   UNL     1      -4.821  10.714  11.911  0.00  0.00    -0.343 OA
ATOM     46  C   UNL     1      -5.804  11.688  12.346  0.00  0.00    +0.198 C 
ENDBRANCH  31  45
ENDBRANCH  28  29
BRANCH  28  47
ATOM     47  O   UNL     1      -5.927   8.420  16.460  0.00  0.00    -0.387 OA
ATOM     48  H   UNL     1      -6.712   8.653  16.962  0.00  0.00    +0.210 HD
ENDBRANCH  28  47
ENDBRANCH  25  28
ENDBRANCH   1  25
TORSDOF 15
