REMARK VINA RESULT:    -5.060      3.342      9.203
REMARK INTER + INTRA:         -11.357
REMARK INTER:                  -8.972
REMARK INTRA:                  -2.386
REMARK UNBOUND:                -2.303
REMARK  Name = lig_assembled_4.pdb
REMARK  19 active torsions:
REMARK  status: ('A' for Active; 'I' for Inactive)
REMARK    1  A    between atoms: _2  and  _9
REMARK    2  A    between atoms: _4  and  _21
REMARK    3  A    between atoms: _6  and  _7
REMARK    4  A    between atoms: _6  and  _21
REMARK    5  A    between atoms: _10  and  _11
REMARK    6  A    between atoms: _11  and  _12
REMARK    7  A    between atoms: _11  and  _13
REMARK    8  A    between atoms: _17  and  _37
REMARK    9  A    between atoms: _19  and  _25
REMARK   10  A    between atoms: _20  and  _24
REMARK   11  A    between atoms: _24  and  _25
REMARK   12  A    between atoms: _27  and  _28
REMARK   13  A    between atoms: _29  and  _30
REMARK   14  A    between atoms: _31  and  _33
REMARK   15  A    between atoms: _33  and  _34
REMARK   16  A    between atoms: _33  and  _35
REMARK   17  A    between atoms: _35  and  _36
REMARK   18  A    between atoms: _35  and  _37
REMARK   19  A    between atoms: _38  and  _40
REMARK                            x       y       z     vdW  Elec       q    Type
REMARK                         _______ _______ _______ _____ _____    ______ ____
ROOT
ATOM      1  C   UNL     1      -4.936   7.790  23.212  0.00  0.00    +0.163 C 
ENDROOT
BRANCH   1   2
ATOM      2  O   UNL     1      -3.730   7.962  22.449  0.00  0.00    -0.388 OA
ATOM      3  H   UNL     1      -3.334   7.104  22.278  0.00  0.00    +0.210 HD
ENDBRANCH   1   2
BRANCH   1   4
ATOM      4  C   UNL     1      -6.082   7.382  22.292  0.00  0.00    +0.141 C 
BRANCH   4   7
ATOM      5  C   UNL     1      -7.319   9.080  20.991  0.00  0.00    +0.401 C 
ATOM      6  O   UNL     1      -8.298   9.078  21.742  0.00  0.00    -0.226 OA
ATOM      7  N   UNL     1      -6.242   8.314  21.169  0.00  0.00    -0.279 N 
ATOM      8  H   UNL     1      -5.493   8.379  20.494  0.00  0.00    +0.152 HD
BRANCH   5   9
ATOM      9  O   UNL     1      -7.319   9.944  19.852  0.00  0.00    -0.444 OA
BRANCH   9  10
ATOM     10  C   UNL     1      -7.301   9.159  18.657  0.00  0.00    +0.292 C 
BRANCH  10  12
ATOM     11  N   UNL     1      -4.886   9.208  18.151  0.00  0.00    -0.131 NA
ATOM     12  C   UNL     1      -6.160   9.536  17.803  0.00  0.00    +0.121 A 
ATOM     13  C   UNL     1      -6.136  10.254  16.629  0.00  0.00    +0.143 A 
ATOM     14  N   UNL     1      -4.795  10.454  16.362  0.00  0.00    -0.219 N 
ATOM     15  N   UNL     1      -4.069   9.747  17.256  0.00  0.00    -0.060 NA
BRANCH  14  16
ATOM     16  C   UNL     1      -4.224  11.278  15.346  0.00  0.00    +0.070 A 
ATOM     17  C   UNL     1      -3.512  10.760  14.230  0.00  0.00    -0.019 A 
ATOM     18  C   UNL     1      -2.971  11.691  13.314  0.00  0.00    +0.006 A 
ATOM     19  C   UNL     1      -3.109  13.068  13.487  0.00  0.00    +0.000 A 
ATOM     20  C   UNL     1      -3.813  13.561  14.575  0.00  0.00    +0.002 A 
ATOM     21  C   UNL     1      -4.365  12.675  15.499  0.00  0.00    +0.028 A 
BRANCH  17  22
ATOM     22  C   UNL     1      -3.285   9.270  13.967  0.00  0.00    +0.015 C 
ATOM     23  C   UNL     1      -2.031   8.675  14.627  0.00  0.00    +0.012 C 
ATOM     24  C   UNL     1      -3.254   9.005  12.460  0.00  0.00    +0.012 C 
ENDBRANCH  17  22
ENDBRANCH  14  16
ENDBRANCH  10  12
ENDBRANCH   9  10
ENDBRANCH   5   9
ENDBRANCH   4   7
ENDBRANCH   1   4
BRANCH   1  25
ATOM     25  C   UNL     1      -5.308   9.086  23.952  0.00  0.00    +0.175 C 
BRANCH  25  26
ATOM     26  C   UNL     1      -4.079   9.777  24.562  0.00  0.00    +0.176 C 
ATOM     27  O   UNL     1      -4.304   9.909  25.992  0.00  0.00    -0.332 OA
ATOM     28  C   UNL     1      -3.183  10.455  26.763  0.00  0.00    +0.277 C 
ATOM     29  C   UNL     1      -2.736  11.816  26.176  0.00  0.00    +0.110 C 
ATOM     30  C   UNL     1      -2.515  11.734  24.650  0.00  0.00    +0.143 C 
ATOM     31  C   UNL     1      -3.741  11.149  23.949  0.00  0.00    +0.133 C 
BRANCH  31  32
ATOM     32  N   UNL     1      -3.486  10.994  22.508  0.00  0.00    -0.308 N 
ATOM     33  H   UNL     1      -2.734  10.382  22.225  0.00  0.00    +0.149 HD
ATOM     34  C   UNL     1      -4.183  11.611  21.550  0.00  0.00    +0.210 C 
ATOM     35  C   UNL     1      -5.305  12.558  22.015  0.00  0.00    +0.109 C 
ATOM     36  O   UNL     1      -3.956  11.451  20.350  0.00  0.00    -0.276 OA
ENDBRANCH  31  32
BRANCH  28  37
ATOM     37  C   UNL     1      -1.990   9.476  26.762  0.00  0.00    +0.414 C 
ATOM     38  O   UNL     1      -2.180   8.268  26.630  0.00  0.00    -0.240 OA
ATOM     39  O   UNL     1      -0.839   9.895  26.892  0.00  0.00    -0.240 OA
ENDBRANCH  28  37
BRANCH  30  40
ATOM     40  O   UNL     1      -2.253  13.038  24.130  0.00  0.00    -0.390 OA
ATOM     41  H   UNL     1      -2.620  13.699  24.722  0.00  0.00    +0.210 HD
ENDBRANCH  30  40
BRANCH  28  42
ATOM     42  O   UNL     1      -3.637  10.671  28.124  0.00  0.00    -0.343 OA
ATOM     43  C   UNL     1      -4.426  11.871  28.323  0.00  0.00    +0.198 C 
ENDBRANCH  28  42
ENDBRANCH  25  26
BRANCH  25  44
ATOM     44  O   UNL     1      -6.283   8.810  24.978  0.00  0.00    -0.387 OA
ATOM     45  H   UNL     1      -5.988   9.189  25.809  0.00  0.00    +0.210 HD
ENDBRANCH  25  44
ENDBRANCH   1  25
TORSDOF 15
