REMARK VINA RESULT:    -4.972      3.221      9.115
REMARK INTER + INTRA:         -11.687
REMARK INTER:                  -8.691
REMARK INTRA:                  -2.996
REMARK UNBOUND:                -2.792
REMARK  Name = lig_assembled_5.pdb
REMARK  18 active torsions:
REMARK  status: ('A' for Active; 'I' for Inactive)
REMARK    1  A    between atoms: _2  and  _9
REMARK    2  A    between atoms: _4  and  _20
REMARK    3  A    between atoms: _6  and  _7
REMARK    4  A    between atoms: _6  and  _20
REMARK    5  A    between atoms: _12  and  _15
REMARK    6  A    between atoms: _13  and  _15
REMARK    7  A    between atoms: _16  and  _36
REMARK    8  A    between atoms: _18  and  _24
REMARK    9  A    between atoms: _19  and  _23
REMARK   10  A    between atoms: _23  and  _24
REMARK   11  A    between atoms: _26  and  _27
REMARK   12  A    between atoms: _28  and  _29
REMARK   13  A    between atoms: _30  and  _32
REMARK   14  A    between atoms: _32  and  _33
REMARK   15  A    between atoms: _32  and  _34
REMARK   16  A    between atoms: _34  and  _35
REMARK   17  A    between atoms: _34  and  _36
REMARK   18  A    between atoms: _37  and  _39
REMARK                            x       y       z     vdW  Elec       q    Type
REMARK                         _______ _______ _______ _____ _____    ______ ____
ROOT
ATOM      1  C   UNL     1      -2.953  11.698  24.803  0.00  0.00    +0.163 C 
ENDROOT
BRANCH   1   2
ATOM      2  O   UNL     1      -3.278  11.579  26.198  0.00  0.00    -0.388 OA
ATOM      3  H   UNL     1      -4.211  11.769  26.327  0.00  0.00    +0.210 HD
ENDBRANCH   1   2
BRANCH   1   4
ATOM      4  C   UNL     1      -3.113  13.146  24.352  0.00  0.00    +0.141 C 
BRANCH   4   7
ATOM      5  C   UNL     1      -4.385  14.287  22.567  0.00  0.00    +0.401 C 
ATOM      6  O   UNL     1      -3.517  15.138  22.363  0.00  0.00    -0.226 OA
ATOM      7  N   UNL     1      -4.282  13.322  23.482  0.00  0.00    -0.279 N 
ATOM      8  H   UNL     1      -5.052  12.675  23.581  0.00  0.00    +0.152 HD
BRANCH   5   9
ATOM      9  O   UNL     1      -5.586  14.319  21.791  0.00  0.00    -0.444 OA
BRANCH   9  10
ATOM     10  C   UNL     1      -6.107  12.993  21.663  0.00  0.00    +0.292 C 
BRANCH  10  12
ATOM     11  N   UNL     1      -7.058  12.518  19.428  0.00  0.00    -0.131 NA
ATOM     12  C   UNL     1      -5.983  12.526  20.269  0.00  0.00    +0.121 A 
ATOM     13  C   UNL     1      -4.881  12.059  19.593  0.00  0.00    +0.143 A 
ATOM     14  N   UNL     1      -5.327  11.800  18.317  0.00  0.00    -0.220 N 
ATOM     15  N   UNL     1      -6.655  12.069  18.247  0.00  0.00    -0.060 NA
BRANCH  14  16
ATOM     16  C   UNL     1      -4.588  11.356  17.190  0.00  0.00    +0.067 A 
ATOM     17  C   UNL     1      -4.044  12.272  16.283  0.00  0.00    +0.031 A 
ATOM     18  C   UNL     1      -3.372  11.814  15.147  0.00  0.00    +0.048 A 
ATOM     19  C   UNL     1      -3.215  10.447  14.911  0.00  0.00    +0.120 A 
ATOM     20  C   UNL     1      -3.741   9.531  15.821  0.00  0.00    +0.048 A 
ATOM     21  C   UNL     1      -4.427   9.982  16.957  0.00  0.00    +0.031 A 
BRANCH  19  22
ATOM     22  O   UNL     1      -2.594  10.134  13.733  0.00  0.00    -0.495 OA
ATOM     23  C   UNL     1      -2.802  11.034  12.653  0.00  0.00    +0.277 C 
ENDBRANCH  19  22
ENDBRANCH  14  16
ENDBRANCH  10  12
ENDBRANCH   9  10
ENDBRANCH   5   9
ENDBRANCH   4   7
ENDBRANCH   1   4
BRANCH   1  24
ATOM     24  C   UNL     1      -3.855  10.790  23.949  0.00  0.00    +0.175 C 
BRANCH  24  25
ATOM     25  C   UNL     1      -4.227   9.492  24.680  0.00  0.00    +0.176 C 
ATOM     26  O   UNL     1      -3.004   8.915  25.217  0.00  0.00    -0.332 OA
ATOM     27  C   UNL     1      -3.179   7.717  26.044  0.00  0.00    +0.277 C 
ATOM     28  C   UNL     1      -3.971   6.636  25.269  0.00  0.00    +0.110 C 
ATOM     29  C   UNL     1      -5.264   7.210  24.652  0.00  0.00    +0.143 C 
ATOM     30  C   UNL     1      -4.967   8.455  23.816  0.00  0.00    +0.133 C 
BRANCH  30  31
ATOM     31  N   UNL     1      -6.216   9.042  23.305  0.00  0.00    -0.308 N 
ATOM     32  H   UNL     1      -6.882   9.392  23.979  0.00  0.00    +0.149 HD
ATOM     33  C   UNL     1      -6.526   9.143  22.010  0.00  0.00    +0.210 C 
ATOM     34  C   UNL     1      -5.501   8.576  21.009  0.00  0.00    +0.109 C 
ATOM     35  O   UNL     1      -7.573   9.653  21.611  0.00  0.00    -0.276 OA
ENDBRANCH  30  31
BRANCH  27  36
ATOM     36  C   UNL     1      -3.919   8.059  27.353  0.00  0.00    +0.414 C 
ATOM     37  O   UNL     1      -3.761   9.156  27.887  0.00  0.00    -0.240 OA
ATOM     38  O   UNL     1      -4.673   7.238  27.877  0.00  0.00    -0.240 OA
ENDBRANCH  27  36
BRANCH  27  39
ATOM     39  O   UNL     1      -1.863   7.188  26.350  0.00  0.00    -0.343 OA
ATOM     40  C   UNL     1      -1.781   5.741  26.402  0.00  0.00    +0.198 C 
ENDBRANCH  27  39
BRANCH  29  41
ATOM     41  O   UNL     1      -5.882   6.223  23.825  0.00  0.00    -0.390 OA
ATOM     42  H   UNL     1      -6.573   6.633  23.298  0.00  0.00    +0.210 HD
ENDBRANCH  29  41
ENDBRANCH  24  25
BRANCH  24  43
ATOM     43  O   UNL     1      -3.210  10.487  22.696  0.00  0.00    -0.387 OA
ATOM     44  H   UNL     1      -2.259  10.461  22.823  0.00  0.00    +0.210 HD
ENDBRANCH  24  43
ENDBRANCH   1  24
TORSDOF 15
