REMARK VINA RESULT:    -4.953      5.357     10.219
REMARK INTER + INTRA:         -10.408
REMARK INTER:                  -7.746
REMARK INTRA:                  -2.663
REMARK UNBOUND:                -1.837
REMARK  Name = lig_assembled_2.pdb
REMARK  16 active torsions:
REMARK  status: ('A' for Active; 'I' for Inactive)
REMARK    1  A    between atoms: _2  and  _9
REMARK    2  A    between atoms: _4  and  _18
REMARK    3  A    between atoms: _6  and  _7
REMARK    4  A    between atoms: _6  and  _18
REMARK    5  A    between atoms: _14  and  _34
REMARK    6  A    between atoms: _16  and  _22
REMARK    7  A    between atoms: _17  and  _21
REMARK    8  A    between atoms: _21  and  _22
REMARK    9  A    between atoms: _24  and  _25
REMARK   10  A    between atoms: _26  and  _27
REMARK   11  A    between atoms: _28  and  _30
REMARK   12  A    between atoms: _30  and  _31
REMARK   13  A    between atoms: _30  and  _32
REMARK   14  A    between atoms: _32  and  _33
REMARK   15  A    between atoms: _32  and  _34
REMARK   16  A    between atoms: _35  and  _37
REMARK                            x       y       z     vdW  Elec       q    Type
REMARK                         _______ _______ _______ _____ _____    ______ ____
ROOT
ATOM      1  C   UNL     1      -6.550   9.015  23.646  0.00  0.00    +0.163 C 
ENDROOT
BRANCH   1   2
ATOM      2  O   UNL     1      -7.240   9.045  24.906  0.00  0.00    -0.388 OA
ATOM      3  H   UNL     1      -8.175   9.204  24.755  0.00  0.00    +0.210 HD
ENDBRANCH   1   2
BRANCH   1   4
ATOM      4  C   UNL     1      -7.409   8.318  22.596  0.00  0.00    +0.141 C 
BRANCH   4   7
ATOM      5  C   UNL     1      -7.014   8.820  20.209  0.00  0.00    +0.401 C 
ATOM      6  O   UNL     1      -6.316   7.821  20.018  0.00  0.00    -0.226 OA
ATOM      7  N   UNL     1      -7.561   9.133  21.385  0.00  0.00    -0.279 N 
ATOM      8  H   UNL     1      -8.111   9.979  21.445  0.00  0.00    +0.152 HD
BRANCH   5   9
ATOM      9  O   UNL     1      -7.263   9.712  19.120  0.00  0.00    -0.444 OA
BRANCH   9  10
ATOM     10  C   UNL     1      -6.631   9.212  17.939  0.00  0.00    +0.292 C 
BRANCH  10  12
ATOM     11  N   UNL     1      -6.272  11.622  17.508  0.00  0.00    -0.131 NA
ATOM     12  C   UNL     1      -6.045  10.321  17.162  0.00  0.00    +0.121 A 
ATOM     13  C   UNL     1      -5.229  10.286  16.055  0.00  0.00    +0.143 A 
ATOM     14  N   UNL     1      -4.956  11.605  15.773  0.00  0.00    -0.220 N 
ATOM     15  N   UNL     1      -5.613  12.395  16.656  0.00  0.00    -0.060 NA
BRANCH  14  16
ATOM     16  C   UNL     1      -4.112  12.141  14.766  0.00  0.00    +0.067 A 
ATOM     17  C   UNL     1      -3.895  13.523  14.667  0.00  0.00    +0.029 A 
ATOM     18  C   UNL     1      -3.089  14.034  13.643  0.00  0.00    +0.022 A 
ATOM     19  C   UNL     1      -2.499  13.171  12.722  0.00  0.00    +0.041 A 
ATOM     20 CL   UNL     1      -1.529  13.810  11.454  0.00  0.00    -0.084 Cl
ATOM     21  C   UNL     1      -2.696  11.795  12.821  0.00  0.00    +0.022 A 
ATOM     22  C   UNL     1      -3.499  11.278  13.841  0.00  0.00    +0.029 A 
ENDBRANCH  14  16
ENDBRANCH  10  12
ENDBRANCH   9  10
ENDBRANCH   5   9
ENDBRANCH   4   7
ENDBRANCH   1   4
BRANCH   1  23
ATOM     23  C   UNL     1      -5.202   8.283  23.774  0.00  0.00    +0.175 C 
BRANCH  23  24
ATOM     24  C   UNL     1      -4.103   9.193  24.343  0.00  0.00    +0.176 C 
ATOM     25  O   UNL     1      -4.402   9.433  25.746  0.00  0.00    -0.332 OA
ATOM     26  C   UNL     1      -3.397  10.201  26.486  0.00  0.00    +0.277 C 
ATOM     27  C   UNL     1      -3.111  11.546  25.774  0.00  0.00    +0.110 C 
ATOM     28  C   UNL     1      -2.818  11.344  24.272  0.00  0.00    +0.143 C 
ATOM     29  C   UNL     1      -3.926  10.531  23.601  0.00  0.00    +0.133 C 
BRANCH  29  30
ATOM     30  N   UNL     1      -3.593  10.271  22.192  0.00  0.00    -0.308 N 
ATOM     31  H   UNL     1      -2.839   9.628  21.996  0.00  0.00    +0.149 HD
ATOM     32  C   UNL     1      -4.223  10.829  21.155  0.00  0.00    +0.210 C 
ATOM     33  C   UNL     1      -5.350  11.825  21.487  0.00  0.00    +0.109 C 
ATOM     34  O   UNL     1      -3.932  10.582  19.984  0.00  0.00    -0.276 OA
ENDBRANCH  29  30
BRANCH  26  35
ATOM     35  C   UNL     1      -2.085   9.400  26.619  0.00  0.00    +0.414 C 
ATOM     36  O   UNL     1      -2.117   8.177  26.749  0.00  0.00    -0.240 OA
ATOM     37  O   UNL     1      -0.997   9.976  26.598  0.00  0.00    -0.240 OA
ENDBRANCH  26  35
BRANCH  28  38
ATOM     38  O   UNL     1      -2.711  12.614  23.627  0.00  0.00    -0.390 OA
ATOM     39  H   UNL     1      -1.860  13.008  23.833  0.00  0.00    +0.210 HD
ENDBRANCH  28  38
BRANCH  26  40
ATOM     40  O   UNL     1      -3.931  10.487  27.804  0.00  0.00    -0.343 OA
ATOM     41  C   UNL     1      -3.926  11.888  28.177  0.00  0.00    +0.198 C 
ENDBRANCH  26  40
ENDBRANCH  23  24
BRANCH  23  42
ATOM     42  O   UNL     1      -4.799   7.757  22.495  0.00  0.00    -0.387 OA
ATOM     43  H   UNL     1      -5.578   7.563  21.968  0.00  0.00    +0.210 HD
ENDBRANCH  23  42
ENDBRANCH   1  23
TORSDOF 14
