REMARK VINA RESULT:    -5.049      2.956      5.262
REMARK INTER + INTRA:         -10.551
REMARK INTER:                  -7.834
REMARK INTRA:                  -2.717
REMARK UNBOUND:                -1.813
REMARK  Name = lig_assembled_40.pdb
REMARK  17 active torsions:
REMARK  status: ('A' for Active; 'I' for Inactive)
REMARK    1  A    between atoms: _2  and  _9
REMARK    2  A    between atoms: _4  and  _19
REMARK    3  A    between atoms: _6  and  _7
REMARK    4  A    between atoms: _6  and  _19
REMARK    5  A    between atoms: _12  and  _13
REMARK    6  A    between atoms: _15  and  _35
REMARK    7  A    between atoms: _17  and  _23
REMARK    8  A    between atoms: _18  and  _22
REMARK    9  A    between atoms: _22  and  _23
REMARK   10  A    between atoms: _25  and  _26
REMARK   11  A    between atoms: _27  and  _28
REMARK   12  A    between atoms: _29  and  _31
REMARK   13  A    between atoms: _31  and  _32
REMARK   14  A    between atoms: _31  and  _33
REMARK   15  A    between atoms: _33  and  _34
REMARK   16  A    between atoms: _33  and  _35
REMARK   17  A    between atoms: _36  and  _38
REMARK                            x       y       z     vdW  Elec       q    Type
REMARK                         _______ _______ _______ _____ _____    ______ ____
ROOT
ATOM      1  C   UNL     1      -6.548   9.168  23.537  0.00  0.00    +0.163 C 
ENDROOT
BRANCH   1   2
ATOM      2  O   UNL     1      -7.221   9.309  24.799  0.00  0.00    -0.388 OA
ATOM      3  H   UNL     1      -8.155   9.477  24.647  0.00  0.00    +0.210 HD
ENDBRANCH   1   2
BRANCH   1   4
ATOM      4  C   UNL     1      -7.456   8.458  22.538  0.00  0.00    +0.141 C 
BRANCH   4   7
ATOM      5  C   UNL     1      -7.063   8.953  20.149  0.00  0.00    +0.401 C 
ATOM      6  O   UNL     1      -6.299   8.000  19.981  0.00  0.00    -0.226 OA
ATOM      7  N   UNL     1      -7.644   9.246  21.313  0.00  0.00    -0.279 N 
ATOM      8  H   UNL     1      -8.248  10.055  21.355  0.00  0.00    +0.152 HD
BRANCH   5   9
ATOM      9  O   UNL     1      -7.354   9.814  19.045  0.00  0.00    -0.444 OA
BRANCH   9  10
ATOM     10  C   UNL     1      -6.725   9.306  17.865  0.00  0.00    +0.292 C 
BRANCH  10  12
ATOM     11  N   UNL     1      -6.260  11.706  17.480  0.00  0.00    -0.131 NA
ATOM     12  C   UNL     1      -6.112  10.405  17.096  0.00  0.00    +0.121 A 
ATOM     13  C   UNL     1      -5.335  10.356  15.963  0.00  0.00    +0.143 A 
ATOM     14  N   UNL     1      -4.998  11.666  15.703  0.00  0.00    -0.220 N 
ATOM     15  N   UNL     1      -5.589  12.467  16.625  0.00  0.00    -0.060 NA
BRANCH  14  16
ATOM     16  C   UNL     1      -4.145  12.176  14.691  0.00  0.00    +0.067 A 
ATOM     17  C   UNL     1      -3.467  11.313  13.823  0.00  0.00    +0.028 A 
ATOM     18  C   UNL     1      -2.576  11.826  12.876  0.00  0.00    +0.005 A 
ATOM     19  C   UNL     1      -2.350  13.203  12.784  0.00  0.00    -0.050 A 
ATOM     20  C   UNL     1      -3.056  14.067  13.630  0.00  0.00    +0.005 A 
ATOM     21  C   UNL     1      -1.359  13.754  11.801  0.00  0.00    +0.044 C 
ATOM     22  C   UNL     1      -3.949  13.560  14.578  0.00  0.00    +0.028 A 
ENDBRANCH  14  16
ENDBRANCH  10  12
ENDBRANCH   9  10
ENDBRANCH   5   9
ENDBRANCH   4   7
ENDBRANCH   1   4
BRANCH   1  23
ATOM     23  C   UNL     1      -5.240   8.374  23.697  0.00  0.00    +0.175 C 
BRANCH  23  24
ATOM     24  C   UNL     1      -4.105   9.239  24.263  0.00  0.00    +0.176 C 
ATOM     25  O   UNL     1      -4.379   9.472  25.672  0.00  0.00    -0.332 OA
ATOM     26  C   UNL     1      -3.340  10.197  26.409  0.00  0.00    +0.277 C 
ATOM     27  C   UNL     1      -3.019  11.541  25.710  0.00  0.00    +0.110 C 
ATOM     28  C   UNL     1      -2.751  11.349  24.202  0.00  0.00    +0.143 C 
ATOM     29  C   UNL     1      -3.892  10.580  23.536  0.00  0.00    +0.133 C 
BRANCH  29  30
ATOM     30  N   UNL     1      -3.586  10.328  22.119  0.00  0.00    -0.308 N 
ATOM     31  H   UNL     1      -2.857   9.660  21.906  0.00  0.00    +0.149 HD
ATOM     32  C   UNL     1      -4.206  10.922  21.097  0.00  0.00    +0.210 C 
ATOM     33  C   UNL     1      -5.293  11.954  21.455  0.00  0.00    +0.109 C 
ATOM     34  O   UNL     1      -3.938  10.680  19.919  0.00  0.00    -0.276 OA
ENDBRANCH  29  30
BRANCH  26  35
ATOM     35  C   UNL     1      -2.054   9.351  26.516  0.00  0.00    +0.414 C 
ATOM     36  O   UNL     1      -0.959   9.900  26.633  0.00  0.00    -0.240 OA
ATOM     37  O   UNL     1      -2.112   8.121  26.486  0.00  0.00    -0.240 OA
ENDBRANCH  26  35
BRANCH  28  38
ATOM     38  O   UNL     1      -2.610  12.622  23.572  0.00  0.00    -0.390 OA
ATOM     39  H   UNL     1      -3.477  12.971  23.355  0.00  0.00    +0.210 HD
ENDBRANCH  28  38
BRANCH  26  40
ATOM     40  O   UNL     1      -3.849  10.483  27.737  0.00  0.00    -0.343 OA
ATOM     41  C   UNL     1      -4.858   9.560  28.218  0.00  0.00    +0.198 C 
ENDBRANCH  26  40
ENDBRANCH  23  24
BRANCH  23  42
ATOM     42  O   UNL     1      -4.848   7.804  22.433  0.00  0.00    -0.387 OA
ATOM     43  H   UNL     1      -5.069   6.870  22.420  0.00  0.00    +0.210 HD
ENDBRANCH  23  42
ENDBRANCH   1  23
TORSDOF 14
