REMARK VINA RESULT:    -5.117      5.144     12.522
REMARK INTER + INTRA:         -13.340
REMARK INTER:                 -10.201
REMARK INTRA:                  -3.139
REMARK UNBOUND:                -3.885
REMARK  Name = lig_assembled_79.pdb
REMARK  20 active torsions:
REMARK  status: ('A' for Active; 'I' for Inactive)
REMARK    1  A    between atoms: _2  and  _10
REMARK    2  A    between atoms: _5  and  _26
REMARK    3  A    between atoms: _7  and  _8
REMARK    4  A    between atoms: _7  and  _26
REMARK    5  A    between atoms: _10  and  _11
REMARK    6  A    between atoms: _10  and  _12
REMARK    7  A    between atoms: _10  and  _13
REMARK    8  A    between atoms: _13  and  _14
REMARK    9  A    between atoms: _22  and  _42
REMARK   10  A    between atoms: _24  and  _30
REMARK   11  A    between atoms: _25  and  _29
REMARK   12  A    between atoms: _29  and  _30
REMARK   13  A    between atoms: _32  and  _33
REMARK   14  A    between atoms: _34  and  _35
REMARK   15  A    between atoms: _36  and  _38
REMARK   16  A    between atoms: _38  and  _39
REMARK   17  A    between atoms: _38  and  _40
REMARK   18  A    between atoms: _40  and  _41
REMARK   19  A    between atoms: _40  and  _42
REMARK   20  A    between atoms: _43  and  _45
REMARK                            x       y       z     vdW  Elec       q    Type
REMARK                         _______ _______ _______ _____ _____    ______ ____
ROOT
ATOM      1  C   UNL     1      -4.880  10.796  19.366  0.00  0.00    +0.401 C 
ATOM      2  O   UNL     1      -4.645  12.000  19.248  0.00  0.00    -0.226 OA
ATOM      3  N   UNL     1      -5.757  10.130  18.613  0.00  0.00    -0.279 N 
ATOM      4  H   UNL     1      -5.874   9.140  18.779  0.00  0.00    +0.152 HD
ENDROOT
BRANCH   3   5
ATOM      5  C   UNL     1      -6.564  10.755  17.557  0.00  0.00    +0.141 C 
BRANCH   5   6
ATOM      6  C   UNL     1      -5.869  10.696  16.201  0.00  0.00    +0.163 C 
BRANCH   6   7
ATOM      7  O   UNL     1      -5.006  11.834  16.041  0.00  0.00    -0.388 OA
ATOM      8  H   UNL     1      -4.588  12.040  16.880  0.00  0.00    +0.210 HD
ENDBRANCH   6   7
BRANCH   6   9
ATOM      9  C   UNL     1      -5.075   9.383  16.087  0.00  0.00    +0.175 C 
BRANCH   9  10
ATOM     10  C   UNL     1      -4.055   9.423  14.940  0.00  0.00    +0.176 C 
ATOM     11  O   UNL     1      -4.713   9.993  13.775  0.00  0.00    -0.332 OA
ATOM     12  C   UNL     1      -3.857  10.208  12.605  0.00  0.00    +0.277 C 
ATOM     13  C   UNL     1      -3.141   8.893  12.210  0.00  0.00    +0.110 C 
ATOM     14  C   UNL     1      -2.453   8.232  13.423  0.00  0.00    +0.143 C 
ATOM     15  C   UNL     1      -3.433   8.059  14.583  0.00  0.00    +0.133 C 
BRANCH  15  16
ATOM     16  N   UNL     1      -2.745   7.509  15.761  0.00  0.00    -0.308 N 
ATOM     17  H   UNL     1      -2.022   8.070  16.190  0.00  0.00    +0.149 HD
ATOM     18  C   UNL     1      -3.014   6.318  16.302  0.00  0.00    +0.210 C 
ATOM     19  C   UNL     1      -4.104   5.477  15.611  0.00  0.00    +0.109 C 
ATOM     20  O   UNL     1      -2.431   5.889  17.299  0.00  0.00    -0.276 OA
ENDBRANCH  15  16
BRANCH  12  21
ATOM     21  C   UNL     1      -2.806  11.301  12.889  0.00  0.00    +0.414 C 
ATOM     22  O   UNL     1      -3.036  12.183  13.716  0.00  0.00    -0.240 OA
ATOM     23  O   UNL     1      -1.729  11.302  12.292  0.00  0.00    -0.240 OA
ENDBRANCH  12  21
BRANCH  14  24
ATOM     24  O   UNL     1      -1.938   6.954  13.047  0.00  0.00    -0.390 OA
ATOM     25  H   UNL     1      -1.269   7.065  12.367  0.00  0.00    +0.210 HD
ENDBRANCH  14  24
BRANCH  12  26
ATOM     26  O   UNL     1      -4.702  10.619  11.500  0.00  0.00    -0.343 OA
ATOM     27  C   UNL     1      -6.041  11.030  11.873  0.00  0.00    +0.198 C 
ENDBRANCH  12  26
ENDBRANCH   9  10
BRANCH   9  28
ATOM     28  O   UNL     1      -5.976   8.272  15.912  0.00  0.00    -0.387 OA
ATOM     29  H   UNL     1      -6.545   8.436  15.157  0.00  0.00    +0.210 HD
ENDBRANCH   9  28
ENDBRANCH   6   9
ENDBRANCH   5   6
ENDBRANCH   3   5
BRANCH   1  30
ATOM     30  O   UNL     1      -4.178  10.045  20.360  0.00  0.00    -0.444 OA
BRANCH  30  31
ATOM     31  C   UNL     1      -5.106   9.555  21.332  0.00  0.00    +0.292 C 
BRANCH  31  33
ATOM     32  N   UNL     1      -3.228   9.730  22.921  0.00  0.00    -0.131 NA
ATOM     33  C   UNL     1      -4.572   9.758  22.690  0.00  0.00    +0.120 A 
ATOM     34  C   UNL     1      -5.229   9.982  23.879  0.00  0.00    +0.138 A 
ATOM     35  N   UNL     1      -4.230  10.176  24.793  0.00  0.00    -0.238 N 
ATOM     36  N   UNL     1      -3.028   9.940  24.212  0.00  0.00    -0.064 NA
BRANCH  35  37
ATOM     37  C   UNL     1      -4.285  10.389  26.269  0.00  0.00    +0.122 C 
ATOM     38  C   UNL     1      -3.015   9.727  26.855  0.00  0.00    +0.044 C 
ATOM     39  C   UNL     1      -5.612   9.746  26.715  0.00  0.00    +0.044 C 
BRANCH  37  40
ATOM     40  C   UNL     1      -4.258  11.876  26.677  0.00  0.00    +0.192 C 
ATOM     41  O   UNL     1      -3.736  12.221  27.743  0.00  0.00    -0.289 OA
BRANCH  40  42
ATOM     42  C   UNL     1      -4.866  12.951  25.841  0.00  0.00    +0.045 A 
ATOM     43  C   UNL     1      -6.065  13.538  26.231  0.00  0.00    +0.095 A 
ATOM     44  N   UNL     1      -6.444  14.466  25.311  0.00  0.00    -0.360 N 
ATOM     45  H   UNL     1      -7.285  15.026  25.356  0.00  0.00    +0.165 HD
ATOM     46  C   UNL     1      -5.522  14.526  24.298  0.00  0.00    +0.047 A 
ATOM     47  C   UNL     1      -5.528  15.333  23.151  0.00  0.00    +0.026 A 
ATOM     48  C   UNL     1      -4.469  15.209  22.252  0.00  0.00    +0.002 A 
ATOM     49  C   UNL     1      -3.442  14.311  22.496  0.00  0.00    +0.001 A 
ATOM     50  C   UNL     1      -3.454  13.515  23.648  0.00  0.00    +0.011 A 
ATOM     51  C   UNL     1      -4.511  13.600  24.590  0.00  0.00    +0.010 A 
ENDBRANCH  40  42
ENDBRANCH  37  40
ENDBRANCH  35  37
ENDBRANCH  31  33
ENDBRANCH  30  31
ENDBRANCH   1  30
TORSDOF 16
