REMARK VINA RESULT:    -4.254      3.710      7.999
REMARK INTER + INTRA:         -11.750
REMARK INTER:                  -8.927
REMARK INTRA:                  -2.823
REMARK UNBOUND:                -3.890
REMARK  Name = lig_assembled_66.pdb
REMARK  18 active torsions:
REMARK  status: ('A' for Active; 'I' for Inactive)
REMARK    1  A    between atoms: _2  and  _10
REMARK    2  A    between atoms: _5  and  _21
REMARK    3  A    between atoms: _7  and  _8
REMARK    4  A    between atoms: _7  and  _21
REMARK    5  A    between atoms: _10  and  _11
REMARK    6  A    between atoms: _15  and  _16
REMARK    7  A    between atoms: _17  and  _37
REMARK    8  A    between atoms: _19  and  _25
REMARK    9  A    between atoms: _20  and  _24
REMARK   10  A    between atoms: _24  and  _25
REMARK   11  A    between atoms: _27  and  _28
REMARK   12  A    between atoms: _29  and  _30
REMARK   13  A    between atoms: _31  and  _33
REMARK   14  A    between atoms: _33  and  _34
REMARK   15  A    between atoms: _33  and  _35
REMARK   16  A    between atoms: _35  and  _36
REMARK   17  A    between atoms: _35  and  _37
REMARK   18  A    between atoms: _38  and  _40
REMARK                            x       y       z     vdW  Elec       q    Type
REMARK                         _______ _______ _______ _____ _____    ______ ____
ROOT
ATOM      1  C   UNL     1      -2.852  12.039  24.206  0.00  0.00    +0.163 C 
ENDROOT
BRANCH   1   2
ATOM      2  O   UNL     1      -2.051  11.757  25.365  0.00  0.00    -0.388 OA
ATOM      3  H   UNL     1      -2.603  11.377  26.052  0.00  0.00    +0.210 HD
ENDBRANCH   1   2
BRANCH   1   4
ATOM      4  C   UNL     1      -3.711  10.822  23.822  0.00  0.00    +0.175 C 
BRANCH   4   5
ATOM      5  C   UNL     1      -3.999   9.914  25.027  0.00  0.00    +0.176 C 
ATOM      6  O   UNL     1      -2.821   9.093  25.260  0.00  0.00    -0.332 OA
ATOM      7  C   UNL     1      -2.873   8.232  26.445  0.00  0.00    +0.277 C 
ATOM      8  C   UNL     1      -4.136   7.337  26.408  0.00  0.00    +0.110 C 
ATOM      9  C   UNL     1      -5.411   8.161  26.131  0.00  0.00    +0.143 C 
ATOM     10  C   UNL     1      -5.246   9.022  24.878  0.00  0.00    +0.133 C 
BRANCH  10  11
ATOM     11  N   UNL     1      -6.433   9.867  24.674  0.00  0.00    -0.308 N 
ATOM     12  H   UNL     1      -6.661  10.542  25.391  0.00  0.00    +0.149 HD
ATOM     13  C   UNL     1      -7.229   9.801  23.604  0.00  0.00    +0.210 C 
ATOM     14  C   UNL     1      -6.869   8.745  22.541  0.00  0.00    +0.109 C 
ATOM     15  O   UNL     1      -8.208  10.532  23.452  0.00  0.00    -0.276 OA
ENDBRANCH  10  11
BRANCH   7  16
ATOM     16  C   UNL     1      -2.878   9.077  27.736  0.00  0.00    +0.414 C 
ATOM     17  O   UNL     1      -3.380   8.632  28.767  0.00  0.00    -0.240 OA
ATOM     18  O   UNL     1      -2.379  10.204  27.746  0.00  0.00    -0.240 OA
ENDBRANCH   7  16
BRANCH   7  19
ATOM     19  O   UNL     1      -1.703   7.374  26.428  0.00  0.00    -0.343 OA
ATOM     20  C   UNL     1      -1.971   5.980  26.134  0.00  0.00    +0.198 C 
ENDBRANCH   7  19
BRANCH   9  21
ATOM     21  O   UNL     1      -6.523   7.283  25.956  0.00  0.00    -0.390 OA
ATOM     22  H   UNL     1      -6.220   6.373  25.977  0.00  0.00    +0.210 HD
ENDBRANCH   9  21
ENDBRANCH   4   5
BRANCH   4  23
ATOM     23  O   UNL     1      -3.065  10.069  22.776  0.00  0.00    -0.387 OA
ATOM     24  H   UNL     1      -3.731   9.647  22.227  0.00  0.00    +0.210 HD
ENDBRANCH   4  23
ENDBRANCH   1   4
BRANCH   1  25
ATOM     25  C   UNL     1      -3.758  13.236  24.477  0.00  0.00    +0.141 C 
BRANCH  25  28
ATOM     26  C   UNL     1      -4.704  14.161  22.390  0.00  0.00    +0.401 C 
ATOM     27  O   UNL     1      -3.725  14.870  22.149  0.00  0.00    -0.226 OA
ATOM     28  N   UNL     1      -4.807  13.370  23.459  0.00  0.00    -0.279 N 
ATOM     29  H   UNL     1      -5.655  12.832  23.575  0.00  0.00    +0.152 HD
BRANCH  26  30
ATOM     30  O   UNL     1      -5.811  14.174  21.484  0.00  0.00    -0.444 OA
BRANCH  30  31
ATOM     31  C   UNL     1      -6.501  12.923  21.555  0.00  0.00    +0.292 C 
BRANCH  31  33
ATOM     32  N   UNL     1      -4.765  11.280  20.902  0.00  0.00    -0.131 NA
ATOM     33  C   UNL     1      -5.917  11.958  20.603  0.00  0.00    +0.120 A 
ATOM     34  C   UNL     1      -6.375  11.545  19.372  0.00  0.00    +0.137 A 
ATOM     35  N   UNL     1      -5.491  10.574  19.000  0.00  0.00    -0.247 N 
ATOM     36  N   UNL     1      -4.513  10.432  19.914  0.00  0.00    -0.065 NA
BRANCH  35  37
ATOM     37  C   UNL     1      -5.655   9.591  17.945  0.00  0.00    +0.180 C 
BRANCH  37  38
ATOM     38  C   UNL     1      -4.682   9.768  16.807  0.00  0.00    -0.025 A 
ATOM     39  C   UNL     1      -4.435  11.044  16.277  0.00  0.00    +0.005 A 
ATOM     40  C   UNL     1      -3.475  11.228  15.280  0.00  0.00    +0.002 A 
ATOM     41  C   UNL     1      -2.762  10.136  14.785  0.00  0.00    +0.019 A 
ATOM     42  C   UNL     1      -3.021   8.853  15.277  0.00  0.00    +0.052 A 
ATOM     43  C   UNL     1      -3.977   8.671  16.285  0.00  0.00    +0.024 A 
BRANCH  42  44
ATOM     44  C   UNL     1      -2.302   7.726  14.758  0.00  0.00    +0.099 C 
ATOM     45  N   UNL     1      -1.714   6.814  14.345  0.00  0.00    -0.191 NA
ENDBRANCH  42  44
ENDBRANCH  37  38
ENDBRANCH  35  37
ENDBRANCH  31  33
ENDBRANCH  30  31
ENDBRANCH  26  30
ENDBRANCH  25  28
ENDBRANCH   1  25
TORSDOF 16
