REMARK VINA RESULT:    -4.224      2.702      5.914
REMARK INTER + INTRA:         -11.879
REMARK INTER:                  -8.298
REMARK INTRA:                  -3.581
REMARK UNBOUND:                -3.581
REMARK  Name = lig_assembled_31.pdb
REMARK  20 active torsions:
REMARK  status: ('A' for Active; 'I' for Inactive)
REMARK    1  A    between atoms: _2  and  _11
REMARK    2  A    between atoms: _3  and  _12
REMARK    3  A    between atoms: _4  and  _14
REMARK    4  A    between atoms: _6  and  _24
REMARK    5  A    between atoms: _8  and  _9
REMARK    6  A    between atoms: _8  and  _24
REMARK    7  A    between atoms: _11  and  _12
REMARK    8  A    between atoms: _14  and  _15
REMARK    9  A    between atoms: _20  and  _40
REMARK   10  A    between atoms: _22  and  _28
REMARK   11  A    between atoms: _23  and  _27
REMARK   12  A    between atoms: _27  and  _28
REMARK   13  A    between atoms: _30  and  _31
REMARK   14  A    between atoms: _32  and  _33
REMARK   15  A    between atoms: _34  and  _36
REMARK   16  A    between atoms: _36  and  _37
REMARK   17  A    between atoms: _36  and  _38
REMARK   18  A    between atoms: _38  and  _39
REMARK   19  A    between atoms: _38  and  _40
REMARK   20  A    between atoms: _41  and  _43
REMARK                            x       y       z     vdW  Elec       q    Type
REMARK                         _______ _______ _______ _____ _____    ______ ____
ROOT
ATOM      1  C   UNL     1      -2.461   8.852  28.821  0.00  0.00    +0.401 C 
ATOM      2  O   UNL     1      -2.073   7.816  28.276  0.00  0.00    -0.226 OA
ATOM      3  N   UNL     1      -2.446  10.051  28.237  0.00  0.00    -0.279 N 
ATOM      4  H   UNL     1      -2.794  10.842  28.762  0.00  0.00    +0.152 HD
ENDROOT
BRANCH   1   5
ATOM      5  O   UNL     1      -2.963   8.788  30.158  0.00  0.00    -0.444 OA
BRANCH   5   6
ATOM      6  C   UNL     1      -3.929   9.825  30.355  0.00  0.00    +0.292 C 
BRANCH   6   8
ATOM      7  N   UNL     1      -2.127  11.105  31.469  0.00  0.00    -0.131 NA
ATOM      8  C   UNL     1      -3.454  10.784  31.373  0.00  0.00    +0.120 A 
ATOM      9  C   UNL     1      -4.155  11.481  32.331  0.00  0.00    +0.137 A 
ATOM     10  N   UNL     1      -3.197  12.199  32.981  0.00  0.00    -0.250 N 
ATOM     11  N   UNL     1      -1.980  11.977  32.459  0.00  0.00    -0.065 NA
BRANCH  10  12
ATOM     12  C   UNL     1      -3.362  13.104  34.100  0.00  0.00    +0.164 C 
BRANCH  12  13
ATOM     13  C   UNL     1      -2.661  14.430  33.849  0.00  0.00    +0.129 C 
BRANCH  13  14
ATOM     14  N   UNL     1      -2.810  14.950  32.496  0.00  0.00    -0.298 N 
ATOM     15  H   UNL     1      -2.062  14.860  31.823  0.00  0.00    +0.150 HD
ATOM     16  C   UNL     1      -3.758  15.913  32.270  0.00  0.00    +0.300 C 
ATOM     17  O   UNL     1      -4.550  16.281  33.134  0.00  0.00    -0.253 OA
ATOM     18  N   UNL     1      -3.768  16.407  31.002  0.00  0.00    -0.292 N 
ATOM     19  H   UNL     1      -3.090  16.134  30.304  0.00  0.00    +0.151 HD
BRANCH  18  20
ATOM     20  C   UNL     1      -4.737  17.422  30.663  0.00  0.00    +0.180 C 
BRANCH  20  21
ATOM     21  C   UNL     1      -5.754  16.962  29.685  0.00  0.00    +0.122 A 
ATOM     22  O   UNL     1      -5.951  17.686  28.541  0.00  0.00    -0.466 OA
ATOM     23  C   UNL     1      -6.924  17.046  27.835  0.00  0.00    +0.195 A 
ATOM     24  C   UNL     1      -7.358  15.927  28.507  0.00  0.00    +0.041 A 
ATOM     25  C   UNL     1      -6.604  15.871  29.702  0.00  0.00    +0.046 A 
ENDBRANCH  20  21
ENDBRANCH  18  20
ENDBRANCH  13  14
ENDBRANCH  12  13
ENDBRANCH  10  12
ENDBRANCH   6   8
ENDBRANCH   5   6
ENDBRANCH   1   5
BRANCH   3  26
ATOM     26  C   UNL     1      -1.954  10.288  26.874  0.00  0.00    +0.141 C 
BRANCH  26  27
ATOM     27  C   UNL     1      -2.827  11.284  26.119  0.00  0.00    +0.163 C 
BRANCH  27  28
ATOM     28  O   UNL     1      -2.002  12.256  25.456  0.00  0.00    -0.388 OA
ATOM     29  H   UNL     1      -1.095  11.942  25.428  0.00  0.00    +0.210 HD
ENDBRANCH  27  28
BRANCH  27  30
ATOM     30  C   UNL     1      -3.711  10.532  25.109  0.00  0.00    +0.175 C 
BRANCH  30  31
ATOM     31  C   UNL     1      -4.770  11.445  24.475  0.00  0.00    +0.176 C 
ATOM     32  O   UNL     1      -4.099  12.311  23.519  0.00  0.00    -0.332 OA
ATOM     33  C   UNL     1      -4.974  13.187  22.734  0.00  0.00    +0.277 C 
ATOM     34  C   UNL     1      -5.871  14.035  23.668  0.00  0.00    +0.110 C 
ATOM     35  C   UNL     1      -6.581  13.161  24.723  0.00  0.00    +0.143 C 
ATOM     36  C   UNL     1      -5.578  12.289  25.479  0.00  0.00    +0.133 C 
BRANCH  36  37
ATOM     37  N   UNL     1      -6.275  11.398  26.420  0.00  0.00    -0.308 N 
ATOM     38  H   UNL     1      -6.854  10.665  26.035  0.00  0.00    +0.149 HD
ATOM     39  C   UNL     1      -6.194  11.496  27.750  0.00  0.00    +0.210 C 
ATOM     40  C   UNL     1      -5.325  12.640  28.305  0.00  0.00    +0.109 C 
ATOM     41  O   UNL     1      -6.778  10.726  28.513  0.00  0.00    -0.276 OA
ENDBRANCH  36  37
BRANCH  33  42
ATOM     42  C   UNL     1      -5.860  12.360  21.779  0.00  0.00    +0.414 C 
ATOM     43  O   UNL     1      -7.086  12.455  21.833  0.00  0.00    -0.240 OA
ATOM     44  O   UNL     1      -5.351  11.599  20.956  0.00  0.00    -0.240 OA
ENDBRANCH  33  42
BRANCH  35  45
ATOM     45  O   UNL     1      -7.274  13.995  25.653  0.00  0.00    -0.390 OA
ATOM     46  H   UNL     1      -6.657  14.320  26.313  0.00  0.00    +0.210 HD
ENDBRANCH  35  45
BRANCH  33  47
ATOM     47  O   UNL     1      -4.135  14.087  21.964  0.00  0.00    -0.343 OA
ATOM     48  C   UNL     1      -4.302  15.494  22.274  0.00  0.00    +0.198 C 
ENDBRANCH  33  47
ENDBRANCH  30  31
BRANCH  30  49
ATOM     49  O   UNL     1      -4.344   9.405  25.747  0.00  0.00    -0.387 OA
ATOM     50  H   UNL     1      -4.202   8.616  25.219  0.00  0.00    +0.210 HD
ENDBRANCH  30  49
ENDBRANCH  27  30
ENDBRANCH  26  27
ENDBRANCH   3  26
TORSDOF 18
