REMARK VINA RESULT:    -5.277      3.333      9.836
REMARK INTER + INTRA:         -12.649
REMARK INTER:                  -8.320
REMARK INTRA:                  -4.328
REMARK UNBOUND:                -2.590
REMARK  Name = lig_assembled_29.pdb
REMARK  21 active torsions:
REMARK  status: ('A' for Active; 'I' for Inactive)
REMARK    1  A    between atoms: _2  and  _9
REMARK    2  A    between atoms: _4  and  _23
REMARK    3  A    between atoms: _6  and  _7
REMARK    4  A    between atoms: _6  and  _23
REMARK    5  A    between atoms: _9  and  _10
REMARK    6  A    between atoms: _12  and  _18
REMARK    7  A    between atoms: _13  and  _18
REMARK    8  A    between atoms: _14  and  _17
REMARK    9  A    between atoms: _15  and  _17
REMARK   10  A    between atoms: _19  and  _39
REMARK   11  A    between atoms: _21  and  _27
REMARK   12  A    between atoms: _22  and  _26
REMARK   13  A    between atoms: _26  and  _27
REMARK   14  A    between atoms: _29  and  _30
REMARK   15  A    between atoms: _31  and  _32
REMARK   16  A    between atoms: _33  and  _35
REMARK   17  A    between atoms: _35  and  _36
REMARK   18  A    between atoms: _35  and  _37
REMARK   19  A    between atoms: _37  and  _38
REMARK   20  A    between atoms: _37  and  _39
REMARK   21  A    between atoms: _40  and  _42
REMARK                            x       y       z     vdW  Elec       q    Type
REMARK                         _______ _______ _______ _____ _____    ______ ____
ROOT
ATOM      1  C   UNL     1      -6.873   8.560  23.857  0.00  0.00    +0.163 C 
ENDROOT
BRANCH   1   2
ATOM      2  O   UNL     1      -6.248   8.641  25.148  0.00  0.00    -0.388 OA
ATOM      3  H   UNL     1      -5.455   8.100  25.155  0.00  0.00    +0.210 HD
ENDBRANCH   1   2
BRANCH   1   4
ATOM      4  C   UNL     1      -6.613   9.837  23.039  0.00  0.00    +0.175 C 
BRANCH   4   5
ATOM      5  C   UNL     1      -5.246  10.460  23.359  0.00  0.00    +0.176 C 
ATOM      6  O   UNL     1      -5.426  11.395  24.458  0.00  0.00    -0.332 OA
ATOM      7  C   UNL     1      -4.200  12.012  24.973  0.00  0.00    +0.277 C 
ATOM      8  C   UNL     1      -3.416  12.697  23.827  0.00  0.00    +0.110 C 
ATOM      9  C   UNL     1      -3.227  11.751  22.622  0.00  0.00    +0.143 C 
ATOM     10  C   UNL     1      -4.565  11.164  22.170  0.00  0.00    +0.133 C 
BRANCH  10  11
ATOM     11  N   UNL     1      -4.361  10.199  21.079  0.00  0.00    -0.308 N 
ATOM     12  H   UNL     1      -3.838   9.358  21.283  0.00  0.00    +0.149 HD
ATOM     13  C   UNL     1      -4.822  10.360  19.835  0.00  0.00    +0.210 C 
ATOM     14  C   UNL     1      -5.592  11.663  19.549  0.00  0.00    +0.109 C 
ATOM     15  O   UNL     1      -4.648   9.528  18.944  0.00  0.00    -0.276 OA
ENDBRANCH  10  11
BRANCH   7  16
ATOM     16  C   UNL     1      -3.302  10.958  25.654  0.00  0.00    +0.414 C 
ATOM     17  O   UNL     1      -3.781   9.894  26.045  0.00  0.00    -0.240 OA
ATOM     18  O   UNL     1      -2.099  11.171  25.812  0.00  0.00    -0.240 OA
ENDBRANCH   7  16
BRANCH   7  19
ATOM     19  O   UNL     1      -4.579  13.027  25.938  0.00  0.00    -0.343 OA
ATOM     20  C   UNL     1      -5.730  13.827  25.565  0.00  0.00    +0.198 C 
ENDBRANCH   7  19
BRANCH   9  21
ATOM     21  O   UNL     1      -2.637  12.467  21.536  0.00  0.00    -0.390 OA
ATOM     22  H   UNL     1      -2.743  13.410  21.678  0.00  0.00    +0.210 HD
ENDBRANCH   9  21
ENDBRANCH   4   5
BRANCH   4  23
ATOM     23  O   UNL     1      -7.662  10.798  23.271  0.00  0.00    -0.387 OA
ATOM     24  H   UNL     1      -7.899  10.795  24.202  0.00  0.00    +0.210 HD
ENDBRANCH   4  23
ENDBRANCH   1   4
BRANCH   1  25
ATOM     25  C   UNL     1      -6.341   7.351  23.095  0.00  0.00    +0.141 C 
BRANCH  25  28
ATOM     26  C   UNL     1      -3.915   6.957  23.345  0.00  0.00    +0.401 C 
ATOM     27  O   UNL     1      -3.607   7.642  22.367  0.00  0.00    -0.226 OA
ATOM     28  N   UNL     1      -5.169   6.761  23.753  0.00  0.00    -0.279 N 
ATOM     29  H   UNL     1      -5.321   6.174  24.561  0.00  0.00    +0.152 HD
BRANCH  26  30
ATOM     30  O   UNL     1      -2.880   6.319  24.099  0.00  0.00    -0.444 OA
BRANCH  30  31
ATOM     31  C   UNL     1      -3.442   5.721  25.270  0.00  0.00    +0.292 C 
BRANCH  31  33
ATOM     32  N   UNL     1      -1.832   7.137  26.515  0.00  0.00    -0.131 NA
ATOM     33  C   UNL     1      -3.019   6.453  26.478  0.00  0.00    +0.120 A 
ATOM     34  C   UNL     1      -3.668   6.613  27.681  0.00  0.00    +0.137 A 
ATOM     35  N   UNL     1      -2.869   7.479  28.371  0.00  0.00    -0.247 N 
ATOM     36  N   UNL     1      -1.745   7.754  27.687  0.00  0.00    -0.065 NA
BRANCH  35  37
ATOM     37  C   UNL     1      -3.133   8.116  29.647  0.00  0.00    +0.180 C 
BRANCH  37  38
ATOM     38  C   UNL     1      -3.840   9.438  29.451  0.00  0.00    -0.022 A 
ATOM     39  C   UNL     1      -5.232   9.474  29.260  0.00  0.00    +0.054 A 
ATOM     40  C   UNL     1      -5.910  10.697  29.157  0.00  0.00    +0.162 A 
ATOM     41  C   UNL     1      -5.186  11.903  29.236  0.00  0.00    +0.162 A 
ATOM     42  C   UNL     1      -3.802  11.865  29.425  0.00  0.00    +0.050 A 
ATOM     43  C   UNL     1      -3.134  10.642  29.530  0.00  0.00    +0.009 A 
BRANCH  40  44
ATOM     44  O   UNL     1      -7.269  10.817  28.991  0.00  0.00    -0.491 OA
ATOM     45  C   UNL     1      -7.921   9.868  28.160  0.00  0.00    +0.277 C 
ENDBRANCH  40  44
BRANCH  41  46
ATOM     46  O   UNL     1      -5.920  13.059  29.119  0.00  0.00    -0.491 OA
ATOM     47  C   UNL     1      -6.000  13.908  30.254  0.00  0.00    +0.277 C 
ENDBRANCH  41  46
ENDBRANCH  37  38
ENDBRANCH  35  37
ENDBRANCH  31  33
ENDBRANCH  30  31
ENDBRANCH  26  30
ENDBRANCH  25  28
ENDBRANCH   1  25
TORSDOF 17
