REMARK VINA RESULT:    -5.009      4.597      8.340
REMARK INTER + INTRA:         -10.839
REMARK INTER:                  -8.376
REMARK INTRA:                  -2.463
REMARK UNBOUND:                -2.170
REMARK  Name = lig_assembled_87.pdb
REMARK  17 active torsions:
REMARK  status: ('A' for Active; 'I' for Inactive)
REMARK    1  A    between atoms: _2  and  _10
REMARK    2  A    between atoms: _3  and  _13
REMARK    3  A    between atoms: _5  and  _21
REMARK    4  A    between atoms: _7  and  _8
REMARK    5  A    between atoms: _7  and  _21
REMARK    6  A    between atoms: _17  and  _37
REMARK    7  A    between atoms: _19  and  _25
REMARK    8  A    between atoms: _20  and  _24
REMARK    9  A    between atoms: _24  and  _25
REMARK   10  A    between atoms: _27  and  _28
REMARK   11  A    between atoms: _29  and  _30
REMARK   12  A    between atoms: _31  and  _33
REMARK   13  A    between atoms: _33  and  _34
REMARK   14  A    between atoms: _33  and  _35
REMARK   15  A    between atoms: _35  and  _36
REMARK   16  A    between atoms: _35  and  _37
REMARK   17  A    between atoms: _38  and  _40
REMARK                            x       y       z     vdW  Elec       q    Type
REMARK                         _______ _______ _______ _____ _____    ______ ____
ROOT
ATOM      1  C   UNL     1      -6.460  10.570  15.832  0.00  0.00    +0.163 C 
ENDROOT
BRANCH   1   2
ATOM      2  O   UNL     1      -5.698  11.779  15.684  0.00  0.00    -0.388 OA
ATOM      3  H   UNL     1      -6.225  12.436  15.222  0.00  0.00    +0.210 HD
ENDBRANCH   1   2
BRANCH   1   4
ATOM      4  C   UNL     1      -7.333  10.653  17.080  0.00  0.00    +0.141 C 
BRANCH   4   7
ATOM      5  C   UNL     1      -5.863  11.019  19.032  0.00  0.00    +0.401 C 
ATOM      6  O   UNL     1      -5.684  12.215  18.791  0.00  0.00    -0.226 OA
ATOM      7  N   UNL     1      -6.614  10.212  18.282  0.00  0.00    -0.279 N 
ATOM      8  H   UNL     1      -6.692   9.243  18.555  0.00  0.00    +0.152 HD
BRANCH   5   9
ATOM      9  O   UNL     1      -5.233  10.440  20.178  0.00  0.00    -0.444 OA
BRANCH   9  10
ATOM     10  C   UNL     1      -4.023  11.145  20.466  0.00  0.00    +0.292 C 
BRANCH  10  12
ATOM     11  N   UNL     1      -3.043  10.199  22.527  0.00  0.00    -0.131 NA
ATOM     12  C   UNL     1      -3.787  11.172  21.921  0.00  0.00    +0.120 A 
ATOM     13  C   UNL     1      -4.198  12.082  22.869  0.00  0.00    +0.137 A 
ATOM     14  N   UNL     1      -3.571  11.680  24.018  0.00  0.00    -0.248 N 
ATOM     15  N   UNL     1      -2.979  10.484  23.816  0.00  0.00    -0.065 NA
BRANCH  14  16
ATOM     16  C   UNL     1      -3.473  12.320  25.343  0.00  0.00    +0.112 C 
ATOM     17  C   UNL     1      -2.772  11.461  26.432  0.00  0.00    +0.045 C 
ATOM     18  C   UNL     1      -3.621  11.132  27.671  0.00  0.00    +0.059 C 
ATOM     19  C   UNL     1      -3.702  12.317  28.644  0.00  0.00    +0.020 C 
ATOM     20  C   UNL     1      -5.012  13.019  28.289  0.00  0.00    +0.020 C 
ATOM     21  C   UNL     1      -5.489  12.295  27.030  0.00  0.00    +0.059 C 
ATOM     22  N   UNL     1      -5.031  10.947  27.352  0.00  0.00    -0.299 NA
ATOM     23  C   UNL     1      -5.376   9.883  26.434  0.00  0.00    +0.105 C 
ATOM     24  C   UNL     1      -4.848  12.908  25.783  0.00  0.00    +0.045 C 
ENDBRANCH  14  16
ENDBRANCH  10  12
ENDBRANCH   9  10
ENDBRANCH   5   9
ENDBRANCH   4   7
ENDBRANCH   1   4
BRANCH   1  25
ATOM     25  C   UNL     1      -5.535   9.345  15.933  0.00  0.00    +0.175 C 
BRANCH  25  26
ATOM     26  C   UNL     1      -4.381   9.409  14.922  0.00  0.00    +0.176 C 
ATOM     27  O   UNL     1      -4.907   9.940  13.675  0.00  0.00    -0.332 OA
ATOM     28  C   UNL     1      -3.919  10.173  12.617  0.00  0.00    +0.277 C 
ATOM     29  C   UNL     1      -3.113   8.880  12.336  0.00  0.00    +0.110 C 
ATOM     30  C   UNL     1      -2.560   8.260  13.636  0.00  0.00    +0.143 C 
ATOM     31  C   UNL     1      -3.672   8.065  14.668  0.00  0.00    +0.133 C 
BRANCH  31  32
ATOM     32  N   UNL     1      -3.118   7.555  15.932  0.00  0.00    -0.308 N 
ATOM     33  H   UNL     1      -2.520   8.170  16.467  0.00  0.00    +0.149 HD
ATOM     34  C   UNL     1      -3.354   6.334  16.419  0.00  0.00    +0.210 C 
ATOM     35  C   UNL     1      -4.247   5.413  15.567  0.00  0.00    +0.109 C 
ATOM     36  O   UNL     1      -2.888   5.939  17.488  0.00  0.00    -0.276 OA
ENDBRANCH  31  32
BRANCH  28  37
ATOM     37  C   UNL     1      -2.951  11.308  13.012  0.00  0.00    +0.414 C 
ATOM     38  O   UNL     1      -3.279  12.134  13.863  0.00  0.00    -0.240 OA
ATOM     39  O   UNL     1      -1.844  11.397  12.480  0.00  0.00    -0.240 OA
ENDBRANCH  28  37
BRANCH  30  40
ATOM     40  O   UNL     1      -1.957   6.998  13.350  0.00  0.00    -0.390 OA
ATOM     41  H   UNL     1      -1.173   7.131  12.812  0.00  0.00    +0.210 HD
ENDBRANCH  30  40
BRANCH  28  42
ATOM     42  O   UNL     1      -4.633  10.538  11.408  0.00  0.00    -0.343 OA
ATOM     43  C   UNL     1      -6.061  10.725  11.573  0.00  0.00    +0.198 C 
ENDBRANCH  28  42
ENDBRANCH  25  26
BRANCH  25  44
ATOM     44  O   UNL     1      -6.293   8.134  15.746  0.00  0.00    -0.387 OA
ATOM     45  H   UNL     1      -5.699   7.417  15.509  0.00  0.00    +0.210 HD
ENDBRANCH  25  44
ENDBRANCH   1  25
TORSDOF 14
