REMARK VINA RESULT:    -4.676      8.285     13.656
REMARK INTER + INTRA:         -10.933
REMARK INTER:                  -7.692
REMARK INTRA:                  -3.241
REMARK UNBOUND:                -2.841
REMARK  Name = lig_assembled_86.pdb
REMARK  17 active torsions:
REMARK  status: ('A' for Active; 'I' for Inactive)
REMARK    1  A    between atoms: _2  and  _10
REMARK    2  A    between atoms: _3  and  _13
REMARK    3  A    between atoms: _5  and  _21
REMARK    4  A    between atoms: _7  and  _8
REMARK    5  A    between atoms: _7  and  _21
REMARK    6  A    between atoms: _17  and  _37
REMARK    7  A    between atoms: _19  and  _25
REMARK    8  A    between atoms: _20  and  _24
REMARK    9  A    between atoms: _24  and  _25
REMARK   10  A    between atoms: _27  and  _28
REMARK   11  A    between atoms: _29  and  _30
REMARK   12  A    between atoms: _31  and  _33
REMARK   13  A    between atoms: _33  and  _34
REMARK   14  A    between atoms: _33  and  _35
REMARK   15  A    between atoms: _35  and  _36
REMARK   16  A    between atoms: _35  and  _37
REMARK   17  A    between atoms: _38  and  _40
REMARK                            x       y       z     vdW  Elec       q    Type
REMARK                         _______ _______ _______ _____ _____    ______ ____
ROOT
ATOM      1  C   UNL     1      -2.850  11.112  31.108  0.00  0.00    +0.163 C 
ENDROOT
BRANCH   1   2
ATOM      2  O   UNL     1      -1.818  11.123  32.107  0.00  0.00    -0.388 OA
ATOM      3  H   UNL     1      -1.220  11.856  31.943  0.00  0.00    +0.210 HD
ENDBRANCH   1   2
BRANCH   1   4
ATOM      4  C   UNL     1      -3.764  12.320  31.288  0.00  0.00    +0.141 C 
BRANCH   4   7
ATOM      5  C   UNL     1      -5.388  12.808  29.490  0.00  0.00    +0.401 C 
ATOM      6  O   UNL     1      -6.317  12.210  30.039  0.00  0.00    -0.226 OA
ATOM      7  N   UNL     1      -4.159  12.904  30.000  0.00  0.00    -0.279 N 
ATOM      8  H   UNL     1      -3.461  13.407  29.471  0.00  0.00    +0.152 HD
BRANCH   5   9
ATOM      9  O   UNL     1      -5.617  13.440  28.228  0.00  0.00    -0.444 OA
BRANCH   9  10
ATOM     10  C   UNL     1      -6.614  12.713  27.504  0.00  0.00    +0.292 C 
BRANCH  10  12
ATOM     11  N   UNL     1      -5.625  13.750  25.480  0.00  0.00    -0.131 NA
ATOM     12  C   UNL     1      -6.294  12.706  26.064  0.00  0.00    +0.120 A 
ATOM     13  C   UNL     1      -6.553  11.752  25.109  0.00  0.00    +0.137 A 
ATOM     14  N   UNL     1      -5.989  12.255  23.976  0.00  0.00    -0.248 N 
ATOM     15  N   UNL     1      -5.458  13.471  24.194  0.00  0.00    -0.065 NA
BRANCH  14  16
ATOM     16  C   UNL     1      -5.917  11.620  22.669  0.00  0.00    +0.112 C 
ATOM     17  C   UNL     1      -5.774  12.656  21.535  0.00  0.00    +0.045 C 
ATOM     18  C   UNL     1      -4.702  12.320  20.495  0.00  0.00    +0.059 C 
ATOM     19  C   UNL     1      -3.298  12.609  21.035  0.00  0.00    +0.020 C 
ATOM     20  C   UNL     1      -2.825  11.276  21.611  0.00  0.00    +0.020 C 
ATOM     21  C   UNL     1      -4.022  10.337  21.435  0.00  0.00    +0.059 C 
ATOM     22  N   UNL     1      -4.613  10.887  20.215  0.00  0.00    -0.299 NA
ATOM     23  C   UNL     1      -5.818  10.239  19.733  0.00  0.00    +0.105 C 
ATOM     24  C   UNL     1      -4.965  10.403  22.644  0.00  0.00    +0.045 C 
ENDBRANCH  14  16
ENDBRANCH  10  12
ENDBRANCH   9  10
ENDBRANCH   5   9
ENDBRANCH   4   7
ENDBRANCH   1   4
BRANCH   1  25
ATOM     25  C   UNL     1      -3.683   9.821  31.190  0.00  0.00    +0.175 C 
BRANCH  25  26
ATOM     26  C   UNL     1      -3.676   9.042  29.866  0.00  0.00    +0.176 C 
ATOM     27  O   UNL     1      -3.576  10.006  28.782  0.00  0.00    -0.332 OA
ATOM     28  C   UNL     1      -3.449   9.436  27.437  0.00  0.00    +0.277 C 
ATOM     29  C   UNL     1      -4.609   8.450  27.156  0.00  0.00    +0.110 C 
ATOM     30  C   UNL     1      -4.774   7.425  28.298  0.00  0.00    +0.143 C 
ATOM     31  C   UNL     1      -4.894   8.126  29.651  0.00  0.00    +0.133 C 
BRANCH  31  32
ATOM     32  N   UNL     1      -4.964   7.138  30.739  0.00  0.00    -0.308 N 
ATOM     33  H   UNL     1      -4.122   6.630  30.970  0.00  0.00    +0.149 HD
ATOM     34  C   UNL     1      -6.068   6.868  31.441  0.00  0.00    +0.210 C 
ATOM     35  C   UNL     1      -7.342   7.640  31.048  0.00  0.00    +0.109 C 
ATOM     36  O   UNL     1      -6.094   6.045  32.357  0.00  0.00    -0.276 OA
ENDBRANCH  31  32
BRANCH  28  37
ATOM     37  C   UNL     1      -2.100   8.704  27.279  0.00  0.00    +0.414 C 
ATOM     38  O   UNL     1      -1.169   8.946  28.046  0.00  0.00    -0.240 OA
ATOM     39  O   UNL     1      -1.943   7.872  26.384  0.00  0.00    -0.240 OA
ENDBRANCH  28  37
BRANCH  30  40
ATOM     40  O   UNL     1      -5.943   6.636  28.071  0.00  0.00    -0.390 OA
ATOM     41  H   UNL     1      -6.540   6.725  28.818  0.00  0.00    +0.210 HD
ENDBRANCH  30  40
BRANCH  28  42
ATOM     42  O   UNL     1      -3.530  10.523  26.480  0.00  0.00    -0.343 OA
ATOM     43  C   UNL     1      -2.811  11.725  26.855  0.00  0.00    +0.198 C 
ENDBRANCH  28  42
ENDBRANCH  25  26
BRANCH  25  44
ATOM     44  O   UNL     1      -5.037  10.127  31.579  0.00  0.00    -0.387 OA
ATOM     45  H   UNL     1      -5.234  11.040  31.360  0.00  0.00    +0.210 HD
ENDBRANCH  25  44
ENDBRANCH   1  25
TORSDOF 14
