REMARK VINA RESULT:    -5.437      5.050      7.759
REMARK INTER + INTRA:         -12.658
REMARK INTER:                 -10.014
REMARK INTRA:                  -2.643
REMARK UNBOUND:                -2.453
REMARK  Name = lig_assembled_75.pdb
REMARK  19 active torsions:
REMARK  status: ('A' for Active; 'I' for Inactive)
REMARK    1  A    between atoms: _2  and  _9
REMARK    2  A    between atoms: _4  and  _23
REMARK    3  A    between atoms: _6  and  _7
REMARK    4  A    between atoms: _6  and  _23
REMARK    5  A    between atoms: _11  and  _12
REMARK    6  A    between atoms: _13  and  _14
REMARK    7  A    between atoms: _14  and  _17
REMARK    8  A    between atoms: _19  and  _39
REMARK    9  A    between atoms: _21  and  _27
REMARK   10  A    between atoms: _22  and  _26
REMARK   11  A    between atoms: _26  and  _27
REMARK   12  A    between atoms: _29  and  _30
REMARK   13  A    between atoms: _31  and  _32
REMARK   14  A    between atoms: _33  and  _35
REMARK   15  A    between atoms: _35  and  _36
REMARK   16  A    between atoms: _35  and  _37
REMARK   17  A    between atoms: _37  and  _38
REMARK   18  A    between atoms: _37  and  _39
REMARK   19  A    between atoms: _40  and  _42
REMARK                            x       y       z     vdW  Elec       q    Type
REMARK                         _______ _______ _______ _____ _____    ______ ____
ROOT
ATOM      1  C   UNL     1      -3.010   9.191  31.760  0.00  0.00    +0.141 C 
ENDROOT
BRANCH   1   4
ATOM      2  C   UNL     1      -3.270   8.100  29.559  0.00  0.00    +0.401 C 
ATOM      3  O   UNL     1      -2.260   7.403  29.680  0.00  0.00    -0.226 OA
ATOM      4  N   UNL     1      -3.692   8.968  30.479  0.00  0.00    -0.279 N 
ATOM      5  H   UNL     1      -4.527   9.502  30.285  0.00  0.00    +0.152 HD
BRANCH   2   6
ATOM      6  O   UNL     1      -4.051   7.991  28.365  0.00  0.00    -0.444 OA
BRANCH   6   7
ATOM      7  C   UNL     1      -3.208   7.603  27.277  0.00  0.00    +0.292 C 
BRANCH   7   9
ATOM      8  N   UNL     1      -1.772   9.491  26.574  0.00  0.00    -0.131 NA
ATOM      9  C   UNL     1      -2.916   8.763  26.414  0.00  0.00    +0.121 A 
ATOM     10  C   UNL     1      -3.652   9.300  25.384  0.00  0.00    +0.143 A 
ATOM     11  N   UNL     1      -2.911  10.370  24.937  0.00  0.00    -0.220 N 
ATOM     12  N   UNL     1      -1.777  10.466  25.675  0.00  0.00    -0.060 NA
BRANCH  11  13
ATOM     13  C   UNL     1      -3.214  11.295  23.906  0.00  0.00    +0.068 A 
ATOM     14  C   UNL     1      -3.506  10.818  22.616  0.00  0.00    +0.035 A 
ATOM     15  C   UNL     1      -3.744  11.707  21.558  0.00  0.00    -0.023 A 
ATOM     16  C   UNL     1      -3.751  13.082  21.823  0.00  0.00    +0.008 A 
ATOM     17  C   UNL     1      -3.485  13.561  23.108  0.00  0.00    +0.003 A 
ATOM     18  C   UNL     1      -3.208  12.673  24.147  0.00  0.00    +0.028 A 
BRANCH  15  19
ATOM     19  C   UNL     1      -4.007  11.249  20.185  0.00  0.00    +0.015 C 
ATOM     20  C   UNL     1      -4.607  12.002  19.249  0.00  0.00    +0.092 C 
BRANCH  20  21
ATOM     21  C   UNL     1      -4.875  11.434  17.915  0.00  0.00    +0.330 C 
ATOM     22  O   UNL     1      -4.651  10.280  17.593  0.00  0.00    -0.246 OA
BRANCH  21  23
ATOM     23  O   UNL     1      -5.417  12.343  17.079  0.00  0.00    -0.478 OA
ATOM     24  H   UNL     1      -4.844  13.094  16.845  0.00  0.00    +0.295 HD
ENDBRANCH  21  23
ENDBRANCH  20  21
ENDBRANCH  15  19
ENDBRANCH  11  13
ENDBRANCH   7   9
ENDBRANCH   6   7
ENDBRANCH   2   6
ENDBRANCH   1   4
BRANCH   1  25
ATOM     25  C   UNL     1      -3.373  10.541  32.370  0.00  0.00    +0.163 C 
BRANCH  25  26
ATOM     26  O   UNL     1      -2.200  11.364  32.475  0.00  0.00    -0.388 OA
ATOM     27  H   UNL     1      -2.072  11.625  33.390  0.00  0.00    +0.210 HD
ENDBRANCH  25  26
BRANCH  25  28
ATOM     28  C   UNL     1      -4.448  11.223  31.506  0.00  0.00    +0.175 C 
BRANCH  28  29
ATOM     29  C   UNL     1      -4.330  12.754  31.538  0.00  0.00    +0.176 C 
ATOM     30  O   UNL     1      -4.764  13.208  32.850  0.00  0.00    -0.332 OA
ATOM     31  C   UNL     1      -4.620  14.645  33.102  0.00  0.00    +0.277 C 
ATOM     32  C   UNL     1      -5.338  15.463  32.001  0.00  0.00    +0.110 C 
ATOM     33  C   UNL     1      -4.932  14.994  30.588  0.00  0.00    +0.143 C 
ATOM     34  C   UNL     1      -5.119  13.484  30.436  0.00  0.00    +0.133 C 
BRANCH  34  35
ATOM     35  N   UNL     1      -4.648  13.037  29.116  0.00  0.00    -0.308 N 
ATOM     36  H   UNL     1      -3.670  13.163  28.896  0.00  0.00    +0.149 HD
ATOM     37  C   UNL     1      -5.428  12.475  28.189  0.00  0.00    +0.210 C 
ATOM     38  C   UNL     1      -6.919  12.320  28.544  0.00  0.00    +0.109 C 
ATOM     39  O   UNL     1      -5.003  12.096  27.097  0.00  0.00    -0.276 OA
ENDBRANCH  34  35
BRANCH  31  40
ATOM     40  C   UNL     1      -3.131  15.045  33.153  0.00  0.00    +0.414 C 
ATOM     41  O   UNL     1      -2.770  16.147  32.742  0.00  0.00    -0.240 OA
ATOM     42  O   UNL     1      -2.290  14.266  33.605  0.00  0.00    -0.240 OA
ENDBRANCH  31  40
BRANCH  31  43
ATOM     43  O   UNL     1      -5.249  14.942  34.376  0.00  0.00    -0.343 OA
ATOM     44  C   UNL     1      -6.577  15.516  34.284  0.00  0.00    +0.198 C 
ENDBRANCH  31  43
BRANCH  33  45
ATOM     45  O   UNL     1      -5.727  15.667  29.610  0.00  0.00    -0.390 OA
ATOM     46  H   UNL     1      -6.613  15.298  29.607  0.00  0.00    +0.210 HD
ENDBRANCH  33  45
ENDBRANCH  28  29
BRANCH  28  47
ATOM     47  O   UNL     1      -5.762  10.817  31.937  0.00  0.00    -0.387 OA
ATOM     48  H   UNL     1      -6.402  11.489  31.691  0.00  0.00    +0.210 HD
ENDBRANCH  28  47
ENDBRANCH  25  28
ENDBRANCH   1  25
TORSDOF 17
