REMARK VINA RESULT:    -4.367      2.656      7.520
REMARK INTER + INTRA:         -12.117
REMARK INTER:                  -7.649
REMARK INTRA:                  -4.468
REMARK UNBOUND:                -3.793
REMARK  Name = lig_assembled_21.pdb
REMARK  20 active torsions:
REMARK  status: ('A' for Active; 'I' for Inactive)
REMARK    1  A    between atoms: _2  and  _9
REMARK    2  A    between atoms: _4  and  _23
REMARK    3  A    between atoms: _6  and  _7
REMARK    4  A    between atoms: _6  and  _23
REMARK    5  A    between atoms: _9  and  _10
REMARK    6  A    between atoms: _11  and  _18
REMARK    7  A    between atoms: _12  and  _13
REMARK    8  A    between atoms: _12  and  _18
REMARK    9  A    between atoms: _19  and  _39
REMARK   10  A    between atoms: _21  and  _27
REMARK   11  A    between atoms: _22  and  _26
REMARK   12  A    between atoms: _26  and  _27
REMARK   13  A    between atoms: _29  and  _30
REMARK   14  A    between atoms: _31  and  _32
REMARK   15  A    between atoms: _33  and  _35
REMARK   16  A    between atoms: _35  and  _36
REMARK   17  A    between atoms: _35  and  _37
REMARK   18  A    between atoms: _37  and  _38
REMARK   19  A    between atoms: _37  and  _39
REMARK   20  A    between atoms: _40  and  _42
REMARK                            x       y       z     vdW  Elec       q    Type
REMARK                         _______ _______ _______ _____ _____    ______ ____
ROOT
ATOM      1  C   UNL     1      -2.445   9.136  28.438  0.00  0.00    +0.163 C 
ENDROOT
BRANCH   1   2
ATOM      2  O   UNL     1      -1.455   9.918  27.750  0.00  0.00    -0.388 OA
ATOM      3  H   UNL     1      -1.860  10.359  27.000  0.00  0.00    +0.210 HD
ENDBRANCH   1   2
BRANCH   1   4
ATOM      4  C   UNL     1      -3.863   9.632  28.110  0.00  0.00    +0.175 C 
BRANCH   4   5
ATOM      5  C   UNL     1      -4.450  10.492  29.240  0.00  0.00    +0.176 C 
ATOM      6  O   UNL     1      -3.704  11.740  29.285  0.00  0.00    -0.332 OA
ATOM      7  C   UNL     1      -4.195  12.737  30.241  0.00  0.00    +0.277 C 
ATOM      8  C   UNL     1      -4.284  12.128  31.662  0.00  0.00    +0.110 C 
ATOM      9  C   UNL     1      -5.041  10.783  31.659  0.00  0.00    +0.143 C 
ATOM     10  C   UNL     1      -4.449   9.823  30.626  0.00  0.00    +0.133 C 
BRANCH  10  11
ATOM     11  N   UNL     1      -5.233   8.579  30.572  0.00  0.00    -0.308 N 
ATOM     12  H   UNL     1      -6.167   8.626  30.189  0.00  0.00    +0.149 HD
ATOM     13  C   UNL     1      -4.791   7.391  30.996  0.00  0.00    +0.210 C 
ATOM     14  C   UNL     1      -3.374   7.358  31.598  0.00  0.00    +0.109 C 
ATOM     15  O   UNL     1      -5.464   6.363  30.924  0.00  0.00    -0.276 OA
ENDBRANCH  10  11
BRANCH   7  16
ATOM     16  C   UNL     1      -5.583  13.263  29.818  0.00  0.00    +0.414 C 
ATOM     17  O   UNL     1      -6.419  13.562  30.670  0.00  0.00    -0.240 OA
ATOM     18  O   UNL     1      -5.867  13.388  28.626  0.00  0.00    -0.240 OA
ENDBRANCH   7  16
BRANCH   9  19
ATOM     19  O   UNL     1      -4.967  10.186  32.954  0.00  0.00    -0.390 OA
ATOM     20  H   UNL     1      -4.096   9.803  33.081  0.00  0.00    +0.210 HD
ENDBRANCH   9  19
BRANCH   7  21
ATOM     21  O   UNL     1      -3.246  13.834  30.272  0.00  0.00    -0.343 OA
ATOM     22  C   UNL     1      -2.768  14.193  31.593  0.00  0.00    +0.198 C 
ENDBRANCH   7  21
ENDBRANCH   4   5
BRANCH   4  23
ATOM     23  O   UNL     1      -4.730   8.513  27.837  0.00  0.00    -0.387 OA
ATOM     24  H   UNL     1      -4.208   7.776  27.511  0.00  0.00    +0.210 HD
ENDBRANCH   4  23
ENDBRANCH   1   4
BRANCH   1  25
ATOM     25  C   UNL     1      -2.315   7.668  28.046  0.00  0.00    +0.141 C 
BRANCH  25  28
ATOM     26  C   UNL     1      -2.362   6.287  25.998  0.00  0.00    +0.401 C 
ATOM     27  O   UNL     1      -2.188   5.223  26.598  0.00  0.00    -0.226 OA
ATOM     28  N   UNL     1      -2.428   7.477  26.595  0.00  0.00    -0.279 N 
ATOM     29  H   UNL     1      -2.563   8.294  26.016  0.00  0.00    +0.152 HD
BRANCH  26  30
ATOM     30  O   UNL     1      -2.499   6.267  24.575  0.00  0.00    -0.444 OA
BRANCH  30  31
ATOM     31  C   UNL     1      -3.811   5.818  24.227  0.00  0.00    +0.292 C 
BRANCH  31  33
ATOM     32  N   UNL     1      -5.376   7.372  25.342  0.00  0.00    -0.131 NA
ATOM     33  C   UNL     1      -4.748   6.956  24.200  0.00  0.00    +0.120 A 
ATOM     34  C   UNL     1      -5.125   7.773  23.157  0.00  0.00    +0.137 A 
ATOM     35  N   UNL     1      -5.912   8.724  23.748  0.00  0.00    -0.247 N 
ATOM     36  N   UNL     1      -6.087   8.452  25.053  0.00  0.00    -0.065 NA
BRANCH  35  37
ATOM     37  C   UNL     1      -6.430   9.927  23.104  0.00  0.00    +0.184 C 
BRANCH  37  38
ATOM     38  C   UNL     1      -5.479  10.628  22.164  0.00  0.00    +0.016 A 
ATOM     39  C   UNL     1      -4.426  11.434  22.635  0.00  0.00    +0.137 A 
ATOM     40  C   UNL     1      -3.556  12.070  21.749  0.00  0.00    +0.047 A 
ATOM     41  C   UNL     1      -3.718  11.894  20.374  0.00  0.00    +0.004 A 
ATOM     42  C   UNL     1      -4.763  11.112  19.888  0.00  0.00    +0.001 A 
ATOM     43  C   UNL     1      -5.636  10.481  20.775  0.00  0.00    +0.009 A 
BRANCH  39  44
ATOM     44  O   UNL     1      -4.350  11.631  24.034  0.00  0.00    -0.426 OA
BRANCH  44  45
ATOM     45  C   UNL     1      -3.285  11.158  24.802  0.00  0.00    +0.309 C 
ATOM     46  O   UNL     1      -2.878  10.006  24.874  0.00  0.00    -0.251 OA
ATOM     47  C   UNL     1      -2.635  12.318  25.498  0.00  0.00    +0.136 C 
ENDBRANCH  44  45
ENDBRANCH  39  44
ENDBRANCH  37  38
ENDBRANCH  35  37
ENDBRANCH  31  33
ENDBRANCH  30  31
ENDBRANCH  26  30
ENDBRANCH  25  28
ENDBRANCH   1  25
TORSDOF 17
