REMARK VINA RESULT:    -4.625      3.420      8.206
REMARK INTER + INTRA:         -11.615
REMARK INTER:                  -7.786
REMARK INTRA:                  -3.829
REMARK UNBOUND:                -2.799
REMARK  Name = lig_assembled_55.pdb
REMARK  20 active torsions:
REMARK  status: ('A' for Active; 'I' for Inactive)
REMARK    1  A    between atoms: _2  and  _10
REMARK    2  A    between atoms: _3  and  _11
REMARK    3  A    between atoms: _3  and  _38
REMARK    4  A    between atoms: _5  and  _18
REMARK    5  A    between atoms: _6  and  _38
REMARK    6  A    between atoms: _7  and  _8
REMARK    7  A    between atoms: _7  and  _18
REMARK    8  A    between atoms: _10  and  _11
REMARK    9  A    between atoms: _14  and  _34
REMARK   10  A    between atoms: _16  and  _22
REMARK   11  A    between atoms: _17  and  _21
REMARK   12  A    between atoms: _21  and  _22
REMARK   13  A    between atoms: _24  and  _25
REMARK   14  A    between atoms: _26  and  _27
REMARK   15  A    between atoms: _28  and  _30
REMARK   16  A    between atoms: _30  and  _31
REMARK   17  A    between atoms: _30  and  _32
REMARK   18  A    between atoms: _32  and  _33
REMARK   19  A    between atoms: _32  and  _34
REMARK   20  A    between atoms: _35  and  _37
REMARK                            x       y       z     vdW  Elec       q    Type
REMARK                         _______ _______ _______ _____ _____    ______ ____
ROOT
ATOM      1  C   UNL     1      -2.446   9.724  27.051  0.00  0.00    +0.163 C 
ENDROOT
BRANCH   1   2
ATOM      2  O   UNL     1      -2.962   9.188  25.821  0.00  0.00    -0.388 OA
ATOM      3  H   UNL     1      -3.781   8.717  25.996  0.00  0.00    +0.210 HD
ENDBRANCH   1   2
BRANCH   1   4
ATOM      4  C   UNL     1      -3.508  10.571  27.771  0.00  0.00    +0.175 C 
BRANCH   4   5
ATOM      5  C   UNL     1      -4.408  11.331  26.785  0.00  0.00    +0.176 C 
ATOM      6  O   UNL     1      -3.567  11.838  25.713  0.00  0.00    -0.332 OA
ATOM      7  C   UNL     1      -4.274  12.506  24.615  0.00  0.00    +0.277 C 
ATOM      8  C   UNL     1      -5.169  13.645  25.162  0.00  0.00    +0.110 C 
ATOM      9  C   UNL     1      -6.059  13.161  26.326  0.00  0.00    +0.143 C 
ATOM     10  C   UNL     1      -5.222  12.479  27.410  0.00  0.00    +0.133 C 
BRANCH  10  11
ATOM     11  N   UNL     1      -6.090  11.946  28.471  0.00  0.00    -0.308 N 
ATOM     12  H   UNL     1      -6.713  11.187  28.234  0.00  0.00    +0.149 HD
ATOM     13  C   UNL     1      -6.108  12.399  29.728  0.00  0.00    +0.210 C 
ATOM     14  C   UNL     1      -5.165  13.574  30.050  0.00  0.00    +0.109 C 
ATOM     15  O   UNL     1      -6.835  11.923  30.600  0.00  0.00    -0.276 OA
ENDBRANCH  10  11
BRANCH   7  16
ATOM     16  C   UNL     1      -5.141  11.499  23.831  0.00  0.00    +0.414 C 
ATOM     17  O   UNL     1      -4.772  10.333  23.700  0.00  0.00    -0.240 OA
ATOM     18  O   UNL     1      -6.209  11.854  23.329  0.00  0.00    -0.240 OA
ENDBRANCH   7  16
BRANCH   7  19
ATOM     19  O   UNL     1      -3.281  13.088  23.731  0.00  0.00    -0.343 OA
ATOM     20  C   UNL     1      -3.751  14.206  22.936  0.00  0.00    +0.198 C 
ENDBRANCH   7  19
BRANCH   9  21
ATOM     21  O   UNL     1      -6.752  14.271  26.896  0.00  0.00    -0.390 OA
ATOM     22  H   UNL     1      -7.658  14.018  27.090  0.00  0.00    +0.210 HD
ENDBRANCH   9  21
ENDBRANCH   4   5
BRANCH   4  23
ATOM     23  O   UNL     1      -2.875  11.495  28.679  0.00  0.00    -0.387 OA
ATOM     24  H   UNL     1      -2.319  12.101  28.183  0.00  0.00    +0.210 HD
ENDBRANCH   4  23
ENDBRANCH   1   4
BRANCH   1  25
ATOM     25  C   UNL     1      -1.993   8.589  27.964  0.00  0.00    +0.141 C 
BRANCH  25  28
ATOM     26  C   UNL     1      -2.988   7.934  30.129  0.00  0.00    +0.401 C 
ATOM     27  O   UNL     1      -3.327   6.814  29.742  0.00  0.00    -0.226 OA
ATOM     28  N   UNL     1      -2.366   8.831  29.363  0.00  0.00    -0.279 N 
ATOM     29  H   UNL     1      -2.137   9.728  29.769  0.00  0.00    +0.152 HD
BRANCH  26  30
ATOM     30  O   UNL     1      -3.274   8.319  31.476  0.00  0.00    -0.444 OA
BRANCH  30  31
ATOM     31  C   UNL     1      -4.199   9.410  31.476  0.00  0.00    +0.292 C 
BRANCH  31  33
ATOM     32  N   UNL     1      -2.411  11.112  31.627  0.00  0.00    -0.131 NA
ATOM     33  C   UNL     1      -3.591  10.600  32.099  0.00  0.00    +0.120 A 
ATOM     34  C   UNL     1      -4.020  11.365  33.162  0.00  0.00    +0.137 A 
ATOM     35  N   UNL     1      -3.050  12.312  33.299  0.00  0.00    -0.250 N 
ATOM     36  N   UNL     1      -2.086  12.158  32.373  0.00  0.00    -0.065 NA
BRANCH  35  37
ATOM     37  C   UNL     1      -2.985  13.395  34.255  0.00  0.00    +0.162 C 
BRANCH  37  38
ATOM     38  C   UNL     1      -2.322  14.664  33.709  0.00  0.00    +0.129 C 
BRANCH  38  39
ATOM     39  N   UNL     1      -2.886  15.121  32.405  0.00  0.00    -0.193 NA
ATOM     40  H   UNL     1      -3.226  14.320  31.859  0.00  0.00    +0.148 HD
BRANCH  39  41
ATOM     41  S   UNL     1      -3.996  16.386  32.476  0.00  0.00    +0.027 S 
ATOM     42  O   UNL     1      -4.143  16.887  31.127  0.00  0.00    -0.158 OA
ATOM     43  O   UNL     1      -5.137  15.923  33.235  0.00  0.00    -0.158 OA
ATOM     44  C   UNL     1      -3.102  17.593  33.427  0.00  0.00    +0.214 C 
ENDBRANCH  39  41
ENDBRANCH  38  39
ENDBRANCH  37  38
ENDBRANCH  35  37
ENDBRANCH  31  33
ENDBRANCH  30  31
ENDBRANCH  26  30
ENDBRANCH  25  28
ENDBRANCH   1  25
TORSDOF 17
