REMARK VINA RESULT:    -4.221      4.596      8.831
REMARK INTER + INTRA:         -11.186
REMARK INTER:                  -8.535
REMARK INTRA:                  -2.651
REMARK UNBOUND:                -2.894
REMARK  Name = lig_assembled_17.pdb
REMARK  22 active torsions:
REMARK  status: ('A' for Active; 'I' for Inactive)
REMARK    1  A    between atoms: _2  and  _10
REMARK    2  A    between atoms: _3  and  _11
REMARK    3  A    between atoms: _3  and  _12
REMARK    4  A    between atoms: _3  and  _14
REMARK    5  A    between atoms: _5  and  _19
REMARK    6  A    between atoms: _6  and  _14
REMARK    7  A    between atoms: _7  and  _8
REMARK    8  A    between atoms: _7  and  _19
REMARK    9  A    between atoms: _10  and  _11
REMARK   10  A    between atoms: _12  and  _13
REMARK   11  A    between atoms: _15  and  _35
REMARK   12  A    between atoms: _17  and  _23
REMARK   13  A    between atoms: _18  and  _22
REMARK   14  A    between atoms: _22  and  _23
REMARK   15  A    between atoms: _25  and  _26
REMARK   16  A    between atoms: _27  and  _28
REMARK   17  A    between atoms: _29  and  _31
REMARK   18  A    between atoms: _31  and  _32
REMARK   19  A    between atoms: _31  and  _33
REMARK   20  A    between atoms: _33  and  _34
REMARK   21  A    between atoms: _33  and  _35
REMARK   22  A    between atoms: _36  and  _38
REMARK                            x       y       z     vdW  Elec       q    Type
REMARK                         _______ _______ _______ _____ _____    ______ ____
ROOT
ATOM      1  C   UNL     1      -4.647   7.279  23.289  0.00  0.00    +0.163 C 
ENDROOT
BRANCH   1   2
ATOM      2  O   UNL     1      -3.463   7.144  22.486  0.00  0.00    -0.388 OA
ATOM      3  H   UNL     1      -3.153   8.014  22.223  0.00  0.00    +0.210 HD
ENDBRANCH   1   2
BRANCH   1   4
ATOM      4  C   UNL     1      -5.033   8.759  23.455  0.00  0.00    +0.175 C 
BRANCH   4   5
ATOM      5  C   UNL     1      -3.950   9.559  24.193  0.00  0.00    +0.176 C 
ATOM      6  O   UNL     1      -4.291   9.575  25.606  0.00  0.00    -0.332 OA
ATOM      7  C   UNL     1      -3.306  10.210  26.488  0.00  0.00    +0.277 C 
ATOM      8  C   UNL     1      -2.999  11.650  26.008  0.00  0.00    +0.110 C 
ATOM      9  C   UNL     1      -2.662  11.688  24.502  0.00  0.00    +0.143 C 
ATOM     10  C   UNL     1      -3.750  10.997  23.679  0.00  0.00    +0.133 C 
BRANCH  10  11
ATOM     11  N   UNL     1      -3.376  10.964  22.256  0.00  0.00    -0.308 N 
ATOM     12  H   UNL     1      -2.576  10.407  21.992  0.00  0.00    +0.149 HD
ATOM     13  C   UNL     1      -4.026  11.621  21.292  0.00  0.00    +0.210 C 
ATOM     14  C   UNL     1      -5.225  12.481  21.731  0.00  0.00    +0.109 C 
ATOM     15  O   UNL     1      -3.699  11.562  20.106  0.00  0.00    -0.276 OA
ENDBRANCH  10  11
BRANCH   7  16
ATOM     16  C   UNL     1      -2.000   9.390  26.530  0.00  0.00    +0.414 C 
ATOM     17  O   UNL     1      -2.039   8.160  26.512  0.00  0.00    -0.240 OA
ATOM     18  O   UNL     1      -0.908   9.958  26.582  0.00  0.00    -0.240 OA
ENDBRANCH   7  16
BRANCH   9  19
ATOM     19  O   UNL     1      -2.535  13.043  24.071  0.00  0.00    -0.390 OA
ATOM     20  H   UNL     1      -2.818  13.117  23.157  0.00  0.00    +0.210 HD
ENDBRANCH   9  19
BRANCH   7  21
ATOM     21  O   UNL     1      -3.879  10.285  27.819  0.00  0.00    -0.343 OA
ATOM     22  C   UNL     1      -4.177  11.626  28.283  0.00  0.00    +0.198 C 
ENDBRANCH   7  21
ENDBRANCH   4   5
BRANCH   4  23
ATOM     23  O   UNL     1      -6.292   8.869  24.150  0.00  0.00    -0.387 OA
ATOM     24  H   UNL     1      -6.133   9.117  25.063  0.00  0.00    +0.210 HD
ENDBRANCH   4  23
ENDBRANCH   1   4
BRANCH   1  25
ATOM     25  C   UNL     1      -5.803   6.520  22.646  0.00  0.00    +0.141 C 
BRANCH  25  28
ATOM     26  C   UNL     1      -6.084   7.185  20.283  0.00  0.00    +0.401 C 
ATOM     27  O   UNL     1      -5.194   6.439  19.869  0.00  0.00    -0.226 OA
ATOM     28  N   UNL     1      -6.431   7.291  21.566  0.00  0.00    -0.279 N 
ATOM     29  H   UNL     1      -7.168   7.939  21.809  0.00  0.00    +0.152 HD
BRANCH  26  30
ATOM     30  O   UNL     1      -6.799   7.999  19.349  0.00  0.00    -0.444 OA
BRANCH  30  31
ATOM     31  C   UNL     1      -6.892   9.335  19.853  0.00  0.00    +0.292 C 
BRANCH  31  33
ATOM     32  N   UNL     1      -7.131  11.568  18.819  0.00  0.00    -0.131 NA
ATOM     33  C   UNL     1      -6.602  10.305  18.781  0.00  0.00    +0.120 A 
ATOM     34  C   UNL     1      -5.820  10.176  17.654  0.00  0.00    +0.137 A 
ATOM     35  N   UNL     1      -5.901  11.401  17.063  0.00  0.00    -0.250 N 
ATOM     36  N   UNL     1      -6.697  12.231  17.758  0.00  0.00    -0.065 NA
BRANCH  35  37
ATOM     37  C   UNL     1      -5.224  11.873  15.873  0.00  0.00    +0.160 C 
BRANCH  37  38
ATOM     38  C   UNL     1      -3.701  11.788  16.047  0.00  0.00    +0.107 C 
BRANCH  38  39
ATOM     39  N   UNL     1      -2.962  11.075  14.975  0.00  0.00    -0.301 NA
BRANCH  39  40
ATOM     40  C   UNL     1      -2.823   9.629  15.224  0.00  0.00    +0.081 C 
ATOM     41  C   UNL     1      -3.725   8.708  14.408  0.00  0.00    +0.020 C 
ENDBRANCH  39  40
BRANCH  39  42
ATOM     42  C   UNL     1      -3.592  11.388  13.675  0.00  0.00    +0.081 C 
ATOM     43  C   UNL     1      -2.625  11.851  12.590  0.00  0.00    +0.020 C 
ENDBRANCH  39  42
ENDBRANCH  38  39
ENDBRANCH  37  38
ENDBRANCH  35  37
ENDBRANCH  31  33
ENDBRANCH  30  31
ENDBRANCH  26  30
ENDBRANCH  25  28
ENDBRANCH   1  25
TORSDOF 18
