REMARK VINA RESULT:    -5.788      5.131      8.190
REMARK INTER + INTRA:         -14.260
REMARK INTER:                  -9.615
REMARK INTRA:                  -4.645
REMARK UNBOUND:                -3.396
REMARK  Name = lig_assembled_34.pdb
REMARK  19 active torsions:
REMARK  status: ('A' for Active; 'I' for Inactive)
REMARK    1  A    between atoms: _2  and  _9
REMARK    2  A    between atoms: _4  and  _37
REMARK    3  A    between atoms: _6  and  _7
REMARK    4  A    between atoms: _6  and  _37
REMARK    5  A    between atoms: _11  and  _12
REMARK    6  A    between atoms: _13  and  _14
REMARK    7  A    between atoms: _18  and  _31
REMARK    8  A    between atoms: _33  and  _53
REMARK    9  A    between atoms: _35  and  _41
REMARK   10  A    between atoms: _36  and  _40
REMARK   11  A    between atoms: _40  and  _41
REMARK   12  A    between atoms: _43  and  _44
REMARK   13  A    between atoms: _45  and  _46
REMARK   14  A    between atoms: _47  and  _49
REMARK   15  A    between atoms: _49  and  _50
REMARK   16  A    between atoms: _49  and  _51
REMARK   17  A    between atoms: _51  and  _52
REMARK   18  A    between atoms: _51  and  _53
REMARK   19  A    between atoms: _54  and  _56
REMARK                            x       y       z     vdW  Elec       q    Type
REMARK                         _______ _______ _______ _____ _____    ______ ____
ROOT
ATOM      1  N   UNL     1      -1.014   9.295  27.329  0.00  0.00    -0.131 NA
ATOM      2  C   UNL     1      -2.139   8.769  27.898  0.00  0.00    +0.121 A 
ATOM      3  C   UNL     1      -3.241   9.318  27.292  0.00  0.00    +0.143 A 
ATOM      4  N   UNL     1      -2.748  10.165  26.324  0.00  0.00    -0.220 N 
ATOM      5  N   UNL     1      -1.389  10.154  26.384  0.00  0.00    -0.060 NA
ENDROOT
BRANCH   4   6
ATOM      6  C   UNL     1      -3.477  10.914  25.362  0.00  0.00    +0.068 A 
ATOM      7  C   UNL     1      -4.672  11.540  25.734  0.00  0.00    +0.038 A 
ATOM      8  C   UNL     1      -5.514  12.194  24.802  0.00  0.00    +0.007 A 
ATOM      9  C   UNL     1      -5.093  12.281  23.459  0.00  0.00    -0.008 A 
ATOM     10  C   UNL     1      -3.857  11.688  23.101  0.00  0.00    +0.011 A 
ATOM     11  C   UNL     1      -3.063  10.997  24.033  0.00  0.00    +0.028 A 
BRANCH   9  12
ATOM     12  C   UNL     1      -5.897  12.891  22.351  0.00  0.00    +0.004 A 
ATOM     13  C   UNL     1      -6.776  12.166  21.602  0.00  0.00    +0.026 A 
ATOM     14  C   UNL     1      -6.963  10.720  21.776  0.00  0.00    +0.016 A 
ATOM     15  C   UNL     1      -7.687   9.996  20.909  0.00  0.00    +0.051 A 
ATOM     16  C   UNL     1      -8.357  10.647  19.757  0.00  0.00    +0.183 A 
ATOM     17  O   UNL     1      -8.968   9.988  18.921  0.00  0.00    -0.288 OA
ATOM     18  C   UNL     1      -8.324  12.121  19.694  0.00  0.00    +0.097 A 
ATOM     19  C   UNL     1      -7.610  12.827  20.581  0.00  0.00    +0.140 A 
ATOM     20  O   UNL     1      -7.724  14.209  20.566  0.00  0.00    -0.455 OA
ATOM     21  C   UNL     1      -6.822  14.948  21.284  0.00  0.00    +0.140 A 
ATOM     22  C   UNL     1      -6.922  16.334  21.162  0.00  0.00    +0.092 A 
ATOM     23  C   UNL     1      -6.004  17.142  21.815  0.00  0.00    +0.120 A 
ATOM     24  C   UNL     1      -4.946  16.579  22.521  0.00  0.00    +0.046 A 
ATOM     25  C   UNL     1      -4.867  15.189  22.645  0.00  0.00    +0.016 A 
ATOM     26  C   UNL     1      -5.843  14.355  22.079  0.00  0.00    +0.026 A 
BRANCH  23  27
ATOM     27  O   UNL     1      -6.175  18.493  21.755  0.00  0.00    -0.507 OA
ATOM     28  H   UNL     1      -6.472  18.790  22.631  0.00  0.00    +0.292 HD
ENDBRANCH  23  27
ENDBRANCH   9  12
BRANCH   8  29
ATOM     29  C   UNL     1      -6.851  12.681  25.324  0.00  0.00    +0.072 C 
ATOM     30  O   UNL     1      -6.835  13.787  25.955  0.00  0.00    -0.545 OA
ATOM     31  O   UNL     1      -7.864  11.937  25.171  0.00  0.00    -0.545 OA
ENDBRANCH   8  29
ENDBRANCH   4   6
BRANCH   2  32
ATOM     32  C   UNL     1      -2.084   7.772  28.985  0.00  0.00    +0.292 C 
BRANCH  32  33
ATOM     33  O   UNL     1      -3.367   7.174  29.190  0.00  0.00    -0.444 OA
BRANCH  33  34
ATOM     34  C   UNL     1      -3.615   7.044  30.592  0.00  0.00    +0.401 C 
ATOM     35  O   UNL     1      -3.552   5.927  31.111  0.00  0.00    -0.226 OA
ATOM     36  N   UNL     1      -3.899   8.162  31.262  0.00  0.00    -0.279 N 
ATOM     37  H   UNL     1      -3.918   9.033  30.750  0.00  0.00    +0.152 HD
BRANCH  36  38
ATOM     38  C   UNL     1      -4.187   8.198  32.701  0.00  0.00    +0.141 C 
BRANCH  38  39
ATOM     39  C   UNL     1      -4.441   9.618  33.195  0.00  0.00    +0.163 C 
BRANCH  39  40
ATOM     40  O   UNL     1      -3.199  10.336  33.285  0.00  0.00    -0.388 OA
ATOM     41  H   UNL     1      -3.313  11.220  32.926  0.00  0.00    +0.210 HD
ENDBRANCH  39  40
BRANCH  39  42
ATOM     42  C   UNL     1      -5.418  10.327  32.242  0.00  0.00    +0.175 C 
BRANCH  42  43
ATOM     43  C   UNL     1      -4.789  11.563  31.582  0.00  0.00    +0.176 C 
ATOM     44  O   UNL     1      -4.689  12.606  32.591  0.00  0.00    -0.332 OA
ATOM     45  C   UNL     1      -4.011  13.835  32.167  0.00  0.00    +0.277 C 
ATOM     46  C   UNL     1      -4.671  14.404  30.888  0.00  0.00    +0.110 C 
ATOM     47  C   UNL     1      -4.827  13.323  29.798  0.00  0.00    +0.143 C 
ATOM     48  C   UNL     1      -5.543  12.089  30.347  0.00  0.00    +0.133 C 
BRANCH  48  49
ATOM     49  N   UNL     1      -5.609  11.033  29.325  0.00  0.00    -0.308 N 
ATOM     50  H   UNL     1      -4.744  10.586  29.053  0.00  0.00    +0.149 HD
ATOM     51  C   UNL     1      -6.735  10.628  28.732  0.00  0.00    +0.210 C 
ATOM     52  C   UNL     1      -8.031  11.349  29.148  0.00  0.00    +0.109 C 
ATOM     53  O   UNL     1      -6.761   9.731  27.889  0.00  0.00    -0.276 OA
ENDBRANCH  48  49
BRANCH  45  54
ATOM     54  C   UNL     1      -2.515  13.569  31.900  0.00  0.00    +0.414 C 
ATOM     55  O   UNL     1      -1.956  12.599  32.412  0.00  0.00    -0.240 OA
ATOM     56  O   UNL     1      -1.866  14.323  31.174  0.00  0.00    -0.240 OA
ENDBRANCH  45  54
BRANCH  47  57
ATOM     57  O   UNL     1      -5.573  13.851  28.700  0.00  0.00    -0.390 OA
ATOM     58  H   UNL     1      -5.725  14.789  28.836  0.00  0.00    +0.210 HD
ENDBRANCH  47  57
BRANCH  45  59
ATOM     59  O   UNL     1      -4.151  14.814  33.229  0.00  0.00    -0.343 OA
ATOM     60  C   UNL     1      -4.405  16.169  32.782  0.00  0.00    +0.198 C 
ENDBRANCH  45  59
ENDBRANCH  42  43
BRANCH  42  61
ATOM     61  O   UNL     1      -6.619  10.698  32.948  0.00  0.00    -0.387 OA
ATOM     62  H   UNL     1      -6.611  10.304  33.823  0.00  0.00    +0.210 HD
ENDBRANCH  42  61
ENDBRANCH  39  42
ENDBRANCH  38  39
ENDBRANCH  36  38
ENDBRANCH  33  34
ENDBRANCH  32  33
ENDBRANCH   2  32
TORSDOF 17
