REMARK VINA RESULT:    -3.380      2.819      4.332
REMARK INTER + INTRA:         -10.254
REMARK INTER:                  -5.907
REMARK INTRA:                  -4.347
REMARK UNBOUND:                -4.108
REMARK  Name = lig_assembled_53.pdb
REMARK  18 active torsions:
REMARK  status: ('A' for Active; 'I' for Inactive)
REMARK    1  A    between atoms: _2  and  _9
REMARK    2  A    between atoms: _4  and  _16
REMARK    3  A    between atoms: _5  and  _9
REMARK    4  A    between atoms: _5  and  _10
REMARK    5  A    between atoms: _6  and  _7
REMARK    6  A    between atoms: _6  and  _16
REMARK    7  A    between atoms: _12  and  _32
REMARK    8  A    between atoms: _14  and  _20
REMARK    9  A    between atoms: _15  and  _19
REMARK   10  A    between atoms: _19  and  _20
REMARK   11  A    between atoms: _22  and  _23
REMARK   12  A    between atoms: _24  and  _25
REMARK   13  A    between atoms: _26  and  _28
REMARK   14  A    between atoms: _28  and  _29
REMARK   15  A    between atoms: _28  and  _30
REMARK   16  A    between atoms: _30  and  _31
REMARK   17  A    between atoms: _30  and  _32
REMARK   18  A    between atoms: _33  and  _35
REMARK                            x       y       z     vdW  Elec       q    Type
REMARK                         _______ _______ _______ _____ _____    ______ ____
ROOT
ATOM      1  C   UNL     1      -2.989  10.641  28.715  0.00  0.00    +0.175 C 
ENDROOT
BRANCH   1   2
ATOM      2  C   UNL     1      -3.309  10.086  30.111  0.00  0.00    +0.176 C 
ATOM      3  O   UNL     1      -4.279   9.014  29.954  0.00  0.00    -0.332 OA
ATOM      4  C   UNL     1      -4.627   8.290  31.181  0.00  0.00    +0.277 C 
ATOM      5  C   UNL     1      -5.108   9.277  32.274  0.00  0.00    +0.110 C 
ATOM      6  C   UNL     1      -4.124  10.451  32.453  0.00  0.00    +0.143 C 
ATOM      7  C   UNL     1      -3.830  11.131  31.115  0.00  0.00    +0.133 C 
BRANCH   7   8
ATOM      8  N   UNL     1      -2.825  12.192  31.286  0.00  0.00    -0.308 N 
ATOM      9  H   UNL     1      -1.885  11.916  31.536  0.00  0.00    +0.149 HD
ATOM     10  C   UNL     1      -3.073  13.495  31.132  0.00  0.00    +0.210 C 
ATOM     11  C   UNL     1      -4.520  13.885  30.778  0.00  0.00    +0.109 C 
ATOM     12  O   UNL     1      -2.208  14.361  31.267  0.00  0.00    -0.276 OA
ENDBRANCH   7   8
BRANCH   4  13
ATOM     13  C   UNL     1      -3.417   7.490  31.705  0.00  0.00    +0.414 C 
ATOM     14  O   UNL     1      -3.267   7.313  32.914  0.00  0.00    -0.240 OA
ATOM     15  O   UNL     1      -2.591   7.021  30.921  0.00  0.00    -0.240 OA
ENDBRANCH   4  13
BRANCH   4  16
ATOM     16  O   UNL     1      -5.716   7.383  30.873  0.00  0.00    -0.343 OA
ATOM     17  C   UNL     1      -5.892   7.093  29.463  0.00  0.00    +0.198 C 
ENDBRANCH   4  16
BRANCH   6  18
ATOM     18  O   UNL     1      -4.677  11.410  33.356  0.00  0.00    -0.390 OA
ATOM     19  H   UNL     1      -4.826  12.237  32.893  0.00  0.00    +0.210 HD
ENDBRANCH   6  18
ENDBRANCH   1   2
BRANCH   1  20
ATOM     20  O   UNL     1      -4.043  11.523  28.277  0.00  0.00    -0.387 OA
ATOM     21  H   UNL     1      -3.987  11.641  27.326  0.00  0.00    +0.210 HD
ENDBRANCH   1  20
BRANCH   1  22
ATOM     22  C   UNL     1      -2.774   9.521  27.682  0.00  0.00    +0.163 C 
BRANCH  22  23
ATOM     23  O   UNL     1      -2.155   8.374  28.289  0.00  0.00    -0.388 OA
ATOM     24  H   UNL     1      -2.832   7.813  28.676  0.00  0.00    +0.210 HD
ENDBRANCH  22  23
BRANCH  22  25
ATOM     25  C   UNL     1      -1.904  10.040  26.542  0.00  0.00    +0.141 C 
BRANCH  25  28
ATOM     26  C   UNL     1      -2.897  11.371  24.713  0.00  0.00    +0.401 C 
ATOM     27  O   UNL     1      -2.904  10.436  23.909  0.00  0.00    -0.226 OA
ATOM     28  N   UNL     1      -2.442  11.277  25.963  0.00  0.00    -0.279 N 
ATOM     29  H   UNL     1      -2.468  12.103  26.544  0.00  0.00    +0.152 HD
BRANCH  26  30
ATOM     30  O   UNL     1      -3.398  12.645  24.300  0.00  0.00    -0.444 OA
BRANCH  30  31
ATOM     31  C   UNL     1      -4.777  12.523  23.941  0.00  0.00    +0.292 C 
BRANCH  31  33
ATOM     32  N   UNL     1      -5.353  13.229  26.244  0.00  0.00    -0.131 NA
ATOM     33  C   UNL     1      -5.621  12.454  25.148  0.00  0.00    +0.120 A 
ATOM     34  C   UNL     1      -6.733  11.683  25.403  0.00  0.00    +0.137 A 
ATOM     35  N   UNL     1      -7.058  11.984  26.691  0.00  0.00    -0.241 N 
ATOM     36  N   UNL     1      -6.252  12.949  27.177  0.00  0.00    -0.065 NA
BRANCH  35  37
ATOM     37  C   UNL     1      -8.180  11.552  27.500  0.00  0.00    +0.265 C 
BRANCH  37  38
ATOM     38  C   UNL     1      -7.878  10.458  28.488  0.00  0.00    +0.326 C 
ATOM     39  O   UNL     1      -8.625   9.553  28.827  0.00  0.00    -0.249 OA
BRANCH  38  40
ATOM     40  O   UNL     1      -6.632  10.569  29.022  0.00  0.00    -0.479 OA
ATOM     41  H   UNL     1      -6.114  11.347  28.739  0.00  0.00    +0.295 HD
ENDBRANCH  38  40
ENDBRANCH  37  38
ENDBRANCH  35  37
ENDBRANCH  31  33
ENDBRANCH  30  31
ENDBRANCH  26  30
ENDBRANCH  25  28
ENDBRANCH  22  25
ENDBRANCH   1  22
TORSDOF 16
