REMARK VINA RESULT:    -4.401      1.549      2.246
REMARK INTER + INTRA:         -10.777
REMARK INTER:                  -7.037
REMARK INTRA:                  -3.740
REMARK UNBOUND:                -2.903
REMARK  Name = lig_assembled_69.pdb
REMARK  18 active torsions:
REMARK  status: ('A' for Active; 'I' for Inactive)
REMARK    1  A    between atoms: _2  and  _9
REMARK    2  A    between atoms: _4  and  _21
REMARK    3  A    between atoms: _6  and  _7
REMARK    4  A    between atoms: _6  and  _21
REMARK    5  A    between atoms: _11  and  _16
REMARK    6  A    between atoms: _14  and  _15
REMARK    7  A    between atoms: _17  and  _37
REMARK    8  A    between atoms: _19  and  _25
REMARK    9  A    between atoms: _20  and  _24
REMARK   10  A    between atoms: _24  and  _25
REMARK   11  A    between atoms: _27  and  _28
REMARK   12  A    between atoms: _29  and  _30
REMARK   13  A    between atoms: _31  and  _33
REMARK   14  A    between atoms: _33  and  _34
REMARK   15  A    between atoms: _33  and  _35
REMARK   16  A    between atoms: _35  and  _36
REMARK   17  A    between atoms: _35  and  _37
REMARK   18  A    between atoms: _38  and  _40
REMARK                            x       y       z     vdW  Elec       q    Type
REMARK                         _______ _______ _______ _____ _____    ______ ____
ROOT
ATOM      1  C   UNL     1      -3.462  10.568  31.636  0.00  0.00    +0.163 C 
ENDROOT
BRANCH   1   2
ATOM      2  O   UNL     1      -2.858  11.208  30.500  0.00  0.00    -0.388 OA
ATOM      3  H   UNL     1      -1.902  11.183  30.589  0.00  0.00    +0.210 HD
ENDBRANCH   1   2
BRANCH   1   4
ATOM      4  C   UNL     1      -4.761  11.284  32.043  0.00  0.00    +0.175 C 
BRANCH   4   5
ATOM      5  C   UNL     1      -4.945  12.616  31.301  0.00  0.00    +0.176 C 
ATOM      6  O   UNL     1      -5.282  13.633  32.283  0.00  0.00    -0.332 OA
ATOM      7  C   UNL     1      -5.393  15.001  31.767  0.00  0.00    +0.277 C 
ATOM      8  C   UNL     1      -6.398  15.056  30.591  0.00  0.00    +0.110 C 
ATOM      9  C   UNL     1      -6.099  13.971  29.535  0.00  0.00    +0.143 C 
ATOM     10  C   UNL     1      -6.002  12.588  30.181  0.00  0.00    +0.133 C 
BRANCH  10  11
ATOM     11  N   UNL     1      -5.631  11.576  29.179  0.00  0.00    -0.308 N 
ATOM     12  H   UNL     1      -4.762  11.703  28.681  0.00  0.00    +0.149 HD
ATOM     13  C   UNL     1      -6.369  10.502  28.886  0.00  0.00    +0.210 C 
ATOM     14  C   UNL     1      -7.701  10.352  29.645  0.00  0.00    +0.109 C 
ATOM     15  O   UNL     1      -6.026   9.663  28.053  0.00  0.00    -0.276 OA
ENDBRANCH  10  11
BRANCH   7  16
ATOM     16  C   UNL     1      -4.018  15.520  31.296  0.00  0.00    +0.414 C 
ATOM     17  O   UNL     1      -2.984  14.984  31.691  0.00  0.00    -0.240 OA
ATOM     18  O   UNL     1      -3.944  16.474  30.521  0.00  0.00    -0.240 OA
ENDBRANCH   7  16
BRANCH   7  19
ATOM     19  O   UNL     1      -5.893  15.845  32.836  0.00  0.00    -0.343 OA
ATOM     20  C   UNL     1      -7.102  16.580  32.521  0.00  0.00    +0.198 C 
ENDBRANCH   7  19
BRANCH   9  21
ATOM     21  O   UNL     1      -7.133  13.959  28.550  0.00  0.00    -0.390 OA
ATOM     22  H   UNL     1      -7.042  13.178  27.999  0.00  0.00    +0.210 HD
ENDBRANCH   9  21
ENDBRANCH   4   5
BRANCH   4  23
ATOM     23  O   UNL     1      -4.781  11.503  33.468  0.00  0.00    -0.387 OA
ATOM     24  H   UNL     1      -4.410  12.366  33.665  0.00  0.00    +0.210 HD
ENDBRANCH   4  23
ENDBRANCH   1   4
BRANCH   1  25
ATOM     25  C   UNL     1      -3.765   9.108  31.313  0.00  0.00    +0.141 C 
BRANCH  25  28
ATOM     26  C   UNL     1      -2.768   7.931  29.382  0.00  0.00    +0.401 C 
ATOM     27  O   UNL     1      -1.997   7.259  30.070  0.00  0.00    -0.226 OA
ATOM     28  N   UNL     1      -3.625   8.825  29.879  0.00  0.00    -0.279 N 
ATOM     29  H   UNL     1      -4.210   9.335  29.233  0.00  0.00    +0.152 HD
BRANCH  26  30
ATOM     30  O   UNL     1      -2.758   7.763  27.962  0.00  0.00    -0.444 OA
BRANCH  30  31
ATOM     31  C   UNL     1      -1.896   8.739  27.371  0.00  0.00    +0.292 C 
BRANCH  31  33
ATOM     32  N   UNL     1      -2.812  11.024  27.594  0.00  0.00    -0.131 NA
ATOM     33  C   UNL     1      -2.682   9.876  26.859  0.00  0.00    +0.120 A 
ATOM     34  C   UNL     1      -3.380  10.015  25.679  0.00  0.00    +0.137 A 
ATOM     35  N   UNL     1      -3.923  11.263  25.764  0.00  0.00    -0.248 N 
ATOM     36  N   UNL     1      -3.579  11.864  26.916  0.00  0.00    -0.065 NA
BRANCH  35  37
ATOM     37  C   UNL     1      -4.816  11.923  24.814  0.00  0.00    +0.114 C 
ATOM     38  C   UNL     1      -4.314  11.773  23.372  0.00  0.00    +0.062 C 
ATOM     39  C   UNL     1      -3.274  12.795  22.909  0.00  0.00    +0.139 C 
ATOM     40  C   UNL     1      -3.761  14.202  22.707  0.00  0.00    +0.002 C 
ATOM     41  C   UNL     1      -4.848  14.796  23.224  0.00  0.00    +0.002 C 
ATOM     42  C   UNL     1      -5.785  14.253  24.259  0.00  0.00    +0.139 C 
ATOM     43  C   UNL     1      -5.129  13.347  25.294  0.00  0.00    +0.062 C 
BRANCH  39  44
ATOM     44  O   UNL     1      -2.807  12.364  21.624  0.00  0.00    -0.388 OA
ATOM     45  H   UNL     1      -3.177  12.973  20.962  0.00  0.00    +0.210 HD
ENDBRANCH  39  44
BRANCH  42  46
ATOM     46  O   UNL     1      -6.856  13.579  23.617  0.00  0.00    -0.388 OA
ATOM     47  H   UNL     1      -7.683  13.986  23.927  0.00  0.00    +0.210 HD
ENDBRANCH  42  46
ENDBRANCH  35  37
ENDBRANCH  31  33
ENDBRANCH  30  31
ENDBRANCH  26  30
ENDBRANCH  25  28
ENDBRANCH   1  25
TORSDOF 16
