REMARK VINA RESULT:    -4.513      2.976      8.032
REMARK INTER + INTRA:         -11.402
REMARK INTER:                  -8.561
REMARK INTRA:                  -2.841
REMARK UNBOUND:                -2.799
REMARK  Name = lig_assembled_55.pdb
REMARK  20 active torsions:
REMARK  status: ('A' for Active; 'I' for Inactive)
REMARK    1  A    between atoms: _2  and  _10
REMARK    2  A    between atoms: _3  and  _11
REMARK    3  A    between atoms: _3  and  _38
REMARK    4  A    between atoms: _5  and  _18
REMARK    5  A    between atoms: _6  and  _38
REMARK    6  A    between atoms: _7  and  _8
REMARK    7  A    between atoms: _7  and  _18
REMARK    8  A    between atoms: _10  and  _11
REMARK    9  A    between atoms: _14  and  _34
REMARK   10  A    between atoms: _16  and  _22
REMARK   11  A    between atoms: _17  and  _21
REMARK   12  A    between atoms: _21  and  _22
REMARK   13  A    between atoms: _24  and  _25
REMARK   14  A    between atoms: _26  and  _27
REMARK   15  A    between atoms: _28  and  _30
REMARK   16  A    between atoms: _30  and  _31
REMARK   17  A    between atoms: _30  and  _32
REMARK   18  A    between atoms: _32  and  _33
REMARK   19  A    between atoms: _32  and  _34
REMARK   20  A    between atoms: _35  and  _37
REMARK                            x       y       z     vdW  Elec       q    Type
REMARK                         _______ _______ _______ _____ _____    ______ ____
ROOT
ATOM      1  C   UNL     1      -4.213   9.019  23.754  0.00  0.00    +0.163 C 
ENDROOT
BRANCH   1   2
ATOM      2  O   UNL     1      -3.753   8.380  22.552  0.00  0.00    -0.388 OA
ATOM      3  H   UNL     1      -3.111   7.702  22.775  0.00  0.00    +0.210 HD
ENDBRANCH   1   2
BRANCH   1   4
ATOM      4  C   UNL     1      -5.625   9.599  23.563  0.00  0.00    +0.175 C 
BRANCH   4   5
ATOM      5  C   UNL     1      -5.600  10.957  22.846  0.00  0.00    +0.176 C 
ATOM      6  O   UNL     1      -5.259  10.720  21.452  0.00  0.00    -0.332 OA
ATOM      7  C   UNL     1      -5.290  11.899  20.582  0.00  0.00    +0.277 C 
ATOM      8  C   UNL     1      -4.391  13.021  21.158  0.00  0.00    +0.110 C 
ATOM      9  C   UNL     1      -4.695  13.287  22.647  0.00  0.00    +0.143 C 
ATOM     10  C   UNL     1      -4.638  11.992  23.458  0.00  0.00    +0.133 C 
BRANCH  10  11
ATOM     11  N   UNL     1      -5.014  12.244  24.858  0.00  0.00    -0.308 N 
ATOM     12  H   UNL     1      -5.990  12.406  25.062  0.00  0.00    +0.149 HD
ATOM     13  C   UNL     1      -4.150  12.273  25.877  0.00  0.00    +0.210 C 
ATOM     14  C   UNL     1      -2.667  12.048  25.529  0.00  0.00    +0.109 C 
ATOM     15  O   UNL     1      -4.496  12.472  27.042  0.00  0.00    -0.276 OA
ENDBRANCH  10  11
BRANCH   7  16
ATOM     16  C   UNL     1      -6.733  12.425  20.426  0.00  0.00    +0.414 C 
ATOM     17  O   UNL     1      -7.683  11.644  20.449  0.00  0.00    -0.240 OA
ATOM     18  O   UNL     1      -6.946  13.628  20.276  0.00  0.00    -0.240 OA
ENDBRANCH   7  16
BRANCH   7  19
ATOM     19  O   UNL     1      -4.768  11.514  19.285  0.00  0.00    -0.343 OA
ATOM     20  C   UNL     1      -4.865  10.100  18.981  0.00  0.00    +0.198 C 
ENDBRANCH   7  19
BRANCH   9  21
ATOM     21  O   UNL     1      -3.746  14.215  23.174  0.00  0.00    -0.390 OA
ATOM     22  H   UNL     1      -3.189  13.773  23.819  0.00  0.00    +0.210 HD
ENDBRANCH   9  21
ENDBRANCH   4   5
BRANCH   4  23
ATOM     23  O   UNL     1      -6.287   9.723  24.838  0.00  0.00    -0.387 OA
ATOM     24  H   UNL     1      -5.905   9.099  25.459  0.00  0.00    +0.210 HD
ENDBRANCH   4  23
ENDBRANCH   1   4
BRANCH   1  25
ATOM     25  C   UNL     1      -4.224   8.019  24.906  0.00  0.00    +0.141 C 
BRANCH  25  28
ATOM     26  C   UNL     1      -2.798   8.691  26.809  0.00  0.00    +0.401 C 
ATOM     27  O   UNL     1      -1.782   8.156  26.358  0.00  0.00    -0.226 OA
ATOM     28  N   UNL     1      -3.984   8.671  26.199  0.00  0.00    -0.279 N 
ATOM     29  H   UNL     1      -4.762   9.130  26.653  0.00  0.00    +0.152 HD
BRANCH  26  30
ATOM     30  O   UNL     1      -2.725   9.376  28.062  0.00  0.00    -0.444 OA
BRANCH  30  31
ATOM     31  C   UNL     1      -4.011   9.366  28.688  0.00  0.00    +0.292 C 
BRANCH  31  33
ATOM     32  N   UNL     1      -2.739   9.498  30.805  0.00  0.00    -0.131 NA
ATOM     33  C   UNL     1      -3.894   9.742  30.109  0.00  0.00    +0.120 A 
ATOM     34  C   UNL     1      -4.807  10.344  30.948  0.00  0.00    +0.137 A 
ATOM     35  N   UNL     1      -4.155  10.420  32.142  0.00  0.00    -0.250 N 
ATOM     36  N   UNL     1      -2.912   9.913  32.051  0.00  0.00    -0.065 NA
BRANCH  35  37
ATOM     37  C   UNL     1      -4.633  10.979  33.388  0.00  0.00    +0.162 C 
BRANCH  37  38
ATOM     38  C   UNL     1      -4.239  12.445  33.600  0.00  0.00    +0.129 C 
BRANCH  38  39
ATOM     39  N   UNL     1      -2.791  12.717  33.364  0.00  0.00    -0.193 NA
ATOM     40  H   UNL     1      -2.306  11.859  33.075  0.00  0.00    +0.148 HD
BRANCH  39  41
ATOM     41  S   UNL     1      -2.433  14.036  32.379  0.00  0.00    +0.027 S 
ATOM     42  O   UNL     1      -2.860  15.218  33.094  0.00  0.00    -0.158 OA
ATOM     43  O   UNL     1      -1.069  13.884  31.924  0.00  0.00    -0.158 OA
ATOM     44  C   UNL     1      -3.544  13.776  31.016  0.00  0.00    +0.214 C 
ENDBRANCH  39  41
ENDBRANCH  38  39
ENDBRANCH  37  38
ENDBRANCH  35  37
ENDBRANCH  31  33
ENDBRANCH  30  31
ENDBRANCH  26  30
ENDBRANCH  25  28
ENDBRANCH   1  25
TORSDOF 17
