REMARK VINA RESULT:    -4.777      7.789     12.100
REMARK INTER + INTRA:         -11.905
REMARK INTER:                  -8.442
REMARK INTRA:                  -3.463
REMARK UNBOUND:                -2.799
REMARK  Name = lig_assembled_55.pdb
REMARK  20 active torsions:
REMARK  status: ('A' for Active; 'I' for Inactive)
REMARK    1  A    between atoms: _2  and  _10
REMARK    2  A    between atoms: _3  and  _11
REMARK    3  A    between atoms: _3  and  _38
REMARK    4  A    between atoms: _5  and  _18
REMARK    5  A    between atoms: _6  and  _38
REMARK    6  A    between atoms: _7  and  _8
REMARK    7  A    between atoms: _7  and  _18
REMARK    8  A    between atoms: _10  and  _11
REMARK    9  A    between atoms: _14  and  _34
REMARK   10  A    between atoms: _16  and  _22
REMARK   11  A    between atoms: _17  and  _21
REMARK   12  A    between atoms: _21  and  _22
REMARK   13  A    between atoms: _24  and  _25
REMARK   14  A    between atoms: _26  and  _27
REMARK   15  A    between atoms: _28  and  _30
REMARK   16  A    between atoms: _30  and  _31
REMARK   17  A    between atoms: _30  and  _32
REMARK   18  A    between atoms: _32  and  _33
REMARK   19  A    between atoms: _32  and  _34
REMARK   20  A    between atoms: _35  and  _37
REMARK                            x       y       z     vdW  Elec       q    Type
REMARK                         _______ _______ _______ _____ _____    ______ ____
ROOT
ATOM      1  C   UNL     1      -1.776   8.414  13.840  0.00  0.00    +0.163 C 
ENDROOT
BRANCH   1   2
ATOM      2  O   UNL     1      -1.861   8.159  12.428  0.00  0.00    -0.388 OA
ATOM      3  H   UNL     1      -1.201   7.508  12.180  0.00  0.00    +0.210 HD
ENDBRANCH   1   2
BRANCH   1   4
ATOM      4  C   UNL     1      -3.001   9.206  14.330  0.00  0.00    +0.175 C 
BRANCH   4   5
ATOM      5  C   UNL     1      -3.349  10.371  13.392  0.00  0.00    +0.176 C 
ATOM      6  O   UNL     1      -2.103  10.937  12.900  0.00  0.00    -0.332 OA
ATOM      7  C   UNL     1      -2.241  12.001  11.901  0.00  0.00    +0.277 C 
ATOM      8  C   UNL     1      -3.155  13.131  12.437  0.00  0.00    +0.110 C 
ATOM      9  C   UNL     1      -4.479  12.574  13.000  0.00  0.00    +0.143 C 
ATOM     10  C   UNL     1      -4.218  11.472  14.027  0.00  0.00    +0.133 C 
BRANCH  10  11
ATOM     11  N   UNL     1      -5.487  10.890  14.492  0.00  0.00    -0.308 N 
ATOM     12  H   UNL     1      -5.992  10.290  13.855  0.00  0.00    +0.149 HD
ATOM     13  C   UNL     1      -6.015  11.102  15.701  0.00  0.00    +0.210 C 
ATOM     14  C   UNL     1      -5.234  12.041  16.639  0.00  0.00    +0.109 C 
ATOM     15  O   UNL     1      -7.072  10.589  16.068  0.00  0.00    -0.276 OA
ENDBRANCH  10  11
BRANCH   7  16
ATOM     16  C   UNL     1      -2.827  11.445  10.587  0.00  0.00    +0.414 C 
ATOM     17  O   UNL     1      -3.409  12.192   9.801  0.00  0.00    -0.240 OA
ATOM     18  O   UNL     1      -2.718  10.249  10.312  0.00  0.00    -0.240 OA
ENDBRANCH   7  16
BRANCH   7  19
ATOM     19  O   UNL     1      -0.924  12.557  11.652  0.00  0.00    -0.343 OA
ATOM     20  C   UNL     1      -0.816  13.989  11.853  0.00  0.00    +0.198 C 
ENDBRANCH   7  19
BRANCH   9  21
ATOM     21  O   UNL     1      -5.220  13.627  13.617  0.00  0.00    -0.390 OA
ATOM     22  H   UNL     1      -6.126  13.610  13.300  0.00  0.00    +0.210 HD
ENDBRANCH   9  21
ENDBRANCH   4   5
BRANCH   4  23
ATOM     23  O   UNL     1      -2.772   9.696  15.667  0.00  0.00    -0.387 OA
ATOM     24  H   UNL     1      -1.887  10.064  15.726  0.00  0.00    +0.210 HD
ENDBRANCH   4  23
ENDBRANCH   1   4
BRANCH   1  25
ATOM     25  C   UNL     1      -1.683   7.097  14.603  0.00  0.00    +0.141 C 
BRANCH  25  28
ATOM     26  C   UNL     1      -3.037   6.224  16.476  0.00  0.00    +0.401 C 
ATOM     27  O   UNL     1      -2.062   5.963  17.184  0.00  0.00    -0.226 OA
ATOM     28  N   UNL     1      -2.952   6.749  15.253  0.00  0.00    -0.279 N 
ATOM     29  H   UNL     1      -3.809   6.918  14.746  0.00  0.00    +0.152 HD
BRANCH  26  30
ATOM     30  O   UNL     1      -4.349   5.949  16.973  0.00  0.00    -0.444 OA
BRANCH  30  31
ATOM     31  C   UNL     1      -5.232   7.013  16.605  0.00  0.00    +0.292 C 
BRANCH  31  33
ATOM     32  N   UNL     1      -4.634   8.864  18.132  0.00  0.00    -0.131 NA
ATOM     33  C   UNL     1      -5.511   7.876  17.767  0.00  0.00    +0.120 A 
ATOM     34  C   UNL     1      -6.580   7.881  18.636  0.00  0.00    +0.137 A 
ATOM     35  N   UNL     1      -6.285   8.878  19.516  0.00  0.00    -0.250 N 
ATOM     36  N   UNL     1      -5.116   9.468  19.208  0.00  0.00    -0.065 NA
BRANCH  35  37
ATOM     37  C   UNL     1      -7.068   9.339  20.642  0.00  0.00    +0.162 C 
BRANCH  37  38
ATOM     38  C   UNL     1      -6.307  10.283  21.580  0.00  0.00    +0.129 C 
BRANCH  38  39
ATOM     39  N   UNL     1      -5.041   9.702  22.116  0.00  0.00    -0.193 NA
ATOM     40  H   UNL     1      -4.568   9.143  21.395  0.00  0.00    +0.148 HD
BRANCH  39  41
ATOM     41  S   UNL     1      -4.005  10.773  22.901  0.00  0.00    +0.027 S 
ATOM     42  O   UNL     1      -4.828  11.841  23.425  0.00  0.00    -0.158 OA
ATOM     43  O   UNL     1      -3.143   9.996  23.763  0.00  0.00    -0.158 OA
ATOM     44  C   UNL     1      -3.058  11.414  21.540  0.00  0.00    +0.214 C 
ENDBRANCH  39  41
ENDBRANCH  38  39
ENDBRANCH  37  38
ENDBRANCH  35  37
ENDBRANCH  31  33
ENDBRANCH  30  31
ENDBRANCH  26  30
ENDBRANCH  25  28
ENDBRANCH   1  25
TORSDOF 17
