REMARK VINA RESULT:    -4.482      9.795     14.752
REMARK INTER + INTRA:         -11.116
REMARK INTER:                  -7.903
REMARK INTRA:                  -3.213
REMARK UNBOUND:                -3.358
REMARK  Name = lig_assembled_42.pdb
REMARK  16 active torsions:
REMARK  status: ('A' for Active; 'I' for Inactive)
REMARK    1  A    between atoms: _2  and  _9
REMARK    2  A    between atoms: _4  and  _21
REMARK    3  A    between atoms: _6  and  _7
REMARK    4  A    between atoms: _6  and  _21
REMARK    5  A    between atoms: _17  and  _37
REMARK    6  A    between atoms: _19  and  _25
REMARK    7  A    between atoms: _20  and  _24
REMARK    8  A    between atoms: _24  and  _25
REMARK    9  A    between atoms: _27  and  _28
REMARK   10  A    between atoms: _29  and  _30
REMARK   11  A    between atoms: _31  and  _33
REMARK   12  A    between atoms: _33  and  _34
REMARK   13  A    between atoms: _33  and  _35
REMARK   14  A    between atoms: _35  and  _36
REMARK   15  A    between atoms: _35  and  _37
REMARK   16  A    between atoms: _38  and  _40
REMARK                            x       y       z     vdW  Elec       q    Type
REMARK                         _______ _______ _______ _____ _____    ______ ____
ROOT
ATOM      1  C   UNL     1      -5.410  12.697  27.393  0.00  0.00    +0.163 C 
ENDROOT
BRANCH   1   2
ATOM      2  O   UNL     1      -6.500  11.803  27.113  0.00  0.00    -0.388 OA
ATOM      3  H   UNL     1      -7.333  12.250  27.281  0.00  0.00    +0.210 HD
ENDBRANCH   1   2
BRANCH   1   4
ATOM      4  C   UNL     1      -4.587  12.927  26.130  0.00  0.00    +0.141 C 
BRANCH   4   7
ATOM      5  C   UNL     1      -3.074  11.292  25.060  0.00  0.00    +0.401 C 
ATOM      6  O   UNL     1      -2.057  11.961  25.261  0.00  0.00    -0.226 OA
ATOM      7  N   UNL     1      -4.299  11.670  25.427  0.00  0.00    -0.279 N 
ATOM      8  H   UNL     1      -5.072  11.058  25.210  0.00  0.00    +0.152 HD
BRANCH   5   9
ATOM      9  O   UNL     1      -2.957  10.034  24.392  0.00  0.00    -0.444 OA
BRANCH   9  10
ATOM     10  C   UNL     1      -3.790   9.069  25.040  0.00  0.00    +0.292 C 
BRANCH  10  12
ATOM     11  N   UNL     1      -1.985   8.171  26.486  0.00  0.00    -0.131 NA
ATOM     12  C   UNL     1      -3.234   8.705  26.357  0.00  0.00    +0.121 A 
ATOM     13  C   UNL     1      -3.803   8.817  27.602  0.00  0.00    +0.143 A 
ATOM     14  N   UNL     1      -2.858   8.335  28.475  0.00  0.00    -0.220 N 
ATOM     15  N   UNL     1      -1.761   7.948  27.776  0.00  0.00    -0.060 NA
BRANCH  14  16
ATOM     16  C   UNL     1      -2.940   8.224  29.886  0.00  0.00    +0.071 A 
ATOM     17  C   UNL     1      -2.955   6.958  30.491  0.00  0.00    +0.077 A 
ATOM     18  C   UNL     1      -3.036   6.903  31.865  0.00  0.00    +0.168 A 
ATOM     19  O   UNL     1      -3.058   5.762  32.603  0.00  0.00    -0.453 OA
ATOM     20  C   UNL     1      -3.138   6.305  33.936  0.00  0.00    +0.466 C 
ATOM     21  O   UNL     1      -3.171   7.749  33.966  0.00  0.00    -0.453 OA
ATOM     22  C   UNL     1      -3.099   8.036  32.639  0.00  0.00    +0.166 A 
ATOM     23  C   UNL     1      -3.088   9.296  32.080  0.00  0.00    +0.051 A 
ATOM     24  C   UNL     1      -3.007   9.392  30.684  0.00  0.00    +0.031 A 
ENDBRANCH  14  16
ENDBRANCH  10  12
ENDBRANCH   9  10
ENDBRANCH   5   9
ENDBRANCH   4   7
ENDBRANCH   1   4
BRANCH   1  25
ATOM     25  C   UNL     1      -4.505  12.130  28.500  0.00  0.00    +0.175 C 
BRANCH  25  26
ATOM     26  C   UNL     1      -4.761  12.803  29.857  0.00  0.00    +0.176 C 
ATOM     27  O   UNL     1      -3.474  13.163  30.428  0.00  0.00    -0.332 OA
ATOM     28  C   UNL     1      -3.526  13.916  31.685  0.00  0.00    +0.277 C 
ATOM     29  C   UNL     1      -4.371  13.156  32.736  0.00  0.00    +0.110 C 
ATOM     30  C   UNL     1      -5.738  12.725  32.164  0.00  0.00    +0.143 C 
ATOM     31  C   UNL     1      -5.566  11.952  30.856  0.00  0.00    +0.133 C 
BRANCH  31  32
ATOM     32  N   UNL     1      -6.878  11.622  30.277  0.00  0.00    -0.308 N 
ATOM     33  H   UNL     1      -7.449  12.384  29.939  0.00  0.00    +0.149 HD
ATOM     34  C   UNL     1      -7.362  10.382  30.168  0.00  0.00    +0.210 C 
ATOM     35  C   UNL     1      -6.478   9.245  30.715  0.00  0.00    +0.109 C 
ATOM     36  O   UNL     1      -8.458  10.134  29.664  0.00  0.00    -0.276 OA
ENDBRANCH  31  32
BRANCH  28  37
ATOM     37  C   UNL     1      -4.126  15.319  31.457  0.00  0.00    +0.414 C 
ATOM     38  O   UNL     1      -3.869  15.944  30.429  0.00  0.00    -0.240 OA
ATOM     39  O   UNL     1      -4.866  15.826  32.301  0.00  0.00    -0.240 OA
ENDBRANCH  28  37
BRANCH  30  40
ATOM     40  O   UNL     1      -6.418  11.901  33.112  0.00  0.00    -0.390 OA
ATOM     41  H   UNL     1      -7.011  11.304  32.650  0.00  0.00    +0.210 HD
ENDBRANCH  30  40
BRANCH  28  42
ATOM     42  O   UNL     1      -2.171  14.040  32.190  0.00  0.00    -0.343 OA
ATOM     43  C   UNL     1      -2.067  14.223  33.624  0.00  0.00    +0.198 C 
ENDBRANCH  28  42
ENDBRANCH  25  26
BRANCH  25  44
ATOM     44  O   UNL     1      -3.119  12.272  28.129  0.00  0.00    -0.387 OA
ATOM     45  H   UNL     1      -2.988  13.118  27.695  0.00  0.00    +0.210 HD
ENDBRANCH  25  44
ENDBRANCH   1  25
TORSDOF 14
