REMARK VINA RESULT:    -4.643      1.989      4.054
REMARK INTER + INTRA:         -12.702
REMARK INTER:                  -9.303
REMARK INTRA:                  -3.399
REMARK UNBOUND:                -3.581
REMARK  Name = lig_assembled_31.pdb
REMARK  20 active torsions:
REMARK  status: ('A' for Active; 'I' for Inactive)
REMARK    1  A    between atoms: _2  and  _11
REMARK    2  A    between atoms: _3  and  _12
REMARK    3  A    between atoms: _4  and  _14
REMARK    4  A    between atoms: _6  and  _24
REMARK    5  A    between atoms: _8  and  _9
REMARK    6  A    between atoms: _8  and  _24
REMARK    7  A    between atoms: _11  and  _12
REMARK    8  A    between atoms: _14  and  _15
REMARK    9  A    between atoms: _20  and  _40
REMARK   10  A    between atoms: _22  and  _28
REMARK   11  A    between atoms: _23  and  _27
REMARK   12  A    between atoms: _27  and  _28
REMARK   13  A    between atoms: _30  and  _31
REMARK   14  A    between atoms: _32  and  _33
REMARK   15  A    between atoms: _34  and  _36
REMARK   16  A    between atoms: _36  and  _37
REMARK   17  A    between atoms: _36  and  _38
REMARK   18  A    between atoms: _38  and  _39
REMARK   19  A    between atoms: _38  and  _40
REMARK   20  A    between atoms: _41  and  _43
REMARK                            x       y       z     vdW  Elec       q    Type
REMARK                         _______ _______ _______ _____ _____    ______ ____
ROOT
ATOM      1  C   UNL     1      -2.104  10.206  26.585  0.00  0.00    +0.401 C 
ATOM      2  O   UNL     1      -1.906  10.162  25.368  0.00  0.00    -0.226 OA
ATOM      3  N   UNL     1      -2.880  11.111  27.181  0.00  0.00    -0.279 N 
ATOM      4  H   UNL     1      -2.989  11.060  28.185  0.00  0.00    +0.152 HD
ENDROOT
BRANCH   1   5
ATOM      5  O   UNL     1      -1.477   9.234  27.426  0.00  0.00    -0.444 OA
BRANCH   5   6
ATOM      6  C   UNL     1      -2.383   8.155  27.667  0.00  0.00    +0.292 C 
BRANCH   6   8
ATOM      7  N   UNL     1      -4.250   8.959  29.080  0.00  0.00    -0.131 NA
ATOM      8  C   UNL     1      -3.044   8.320  28.977  0.00  0.00    +0.120 A 
ATOM      9  C   UNL     1      -2.641   7.917  30.231  0.00  0.00    +0.137 A 
ATOM     10  N   UNL     1      -3.641   8.349  31.051  0.00  0.00    -0.250 N 
ATOM     11  N   UNL     1      -4.609   8.969  30.357  0.00  0.00    -0.065 NA
BRANCH  10  12
ATOM     12  C   UNL     1      -3.740   8.213  32.489  0.00  0.00    +0.164 C 
BRANCH  12  13
ATOM     13  C   UNL     1      -3.221   9.453  33.201  0.00  0.00    +0.129 C 
BRANCH  13  14
ATOM     14  N   UNL     1      -3.822  10.705  32.759  0.00  0.00    -0.298 N 
ATOM     15  H   UNL     1      -4.801  10.748  32.512  0.00  0.00    +0.150 HD
ATOM     16  C   UNL     1      -2.998  11.687  32.277  0.00  0.00    +0.300 C 
ATOM     17  O   UNL     1      -1.773  11.595  32.295  0.00  0.00    -0.253 OA
ATOM     18  N   UNL     1      -3.649  12.785  31.804  0.00  0.00    -0.292 N 
ATOM     19  H   UNL     1      -4.656  12.843  31.751  0.00  0.00    +0.151 HD
BRANCH  18  20
ATOM     20  C   UNL     1      -2.867  13.880  31.279  0.00  0.00    +0.180 C 
BRANCH  20  21
ATOM     21  C   UNL     1      -3.571  15.185  31.335  0.00  0.00    +0.122 A 
ATOM     22  O   UNL     1      -3.075  16.174  32.139  0.00  0.00    -0.466 OA
ATOM     23  C   UNL     1      -3.902  17.246  31.998  0.00  0.00    +0.195 A 
ATOM     24  C   UNL     1      -4.922  16.963  31.119  0.00  0.00    +0.041 A 
ATOM     25  C   UNL     1      -4.710  15.632  30.690  0.00  0.00    +0.046 A 
ENDBRANCH  20  21
ENDBRANCH  18  20
ENDBRANCH  13  14
ENDBRANCH  12  13
ENDBRANCH  10  12
ENDBRANCH   6   8
ENDBRANCH   5   6
ENDBRANCH   1   5
BRANCH   3  26
ATOM     26  C   UNL     1      -3.587  12.179  26.463  0.00  0.00    +0.141 C 
BRANCH  26  27
ATOM     27  C   UNL     1      -5.099  11.991  26.508  0.00  0.00    +0.163 C 
BRANCH  27  28
ATOM     28  O   UNL     1      -5.758  13.242  26.253  0.00  0.00    -0.388 OA
ATOM     29  H   UNL     1      -6.709  13.108  26.243  0.00  0.00    +0.210 HD
ENDBRANCH  27  28
BRANCH  27  30
ATOM     30  C   UNL     1      -5.517  10.929  25.476  0.00  0.00    +0.175 C 
BRANCH  30  31
ATOM     31  C   UNL     1      -5.041  11.283  24.059  0.00  0.00    +0.176 C 
ATOM     32  O   UNL     1      -5.956  12.273  23.514  0.00  0.00    -0.332 OA
ATOM     33  C   UNL     1      -5.597  12.811  22.198  0.00  0.00    +0.277 C 
ATOM     34  C   UNL     1      -5.402  11.662  21.179  0.00  0.00    +0.110 C 
ATOM     35  C   UNL     1      -4.461  10.569  21.727  0.00  0.00    +0.143 C 
ATOM     36  C   UNL     1      -4.926  10.083  23.100  0.00  0.00    +0.133 C 
BRANCH  36  37
ATOM     37  N   UNL     1      -3.974   9.104  23.650  0.00  0.00    -0.308 N 
ATOM     38  H   UNL     1      -3.025   9.410  23.813  0.00  0.00    +0.149 HD
ATOM     39  C   UNL     1      -4.283   7.839  23.947  0.00  0.00    +0.210 C 
ATOM     40  C   UNL     1      -5.731   7.398  23.663  0.00  0.00    +0.109 C 
ATOM     41  O   UNL     1      -3.468   7.046  24.421  0.00  0.00    -0.276 OA
ENDBRANCH  36  37
BRANCH  33  42
ATOM     42  C   UNL     1      -4.305  13.650  22.284  0.00  0.00    +0.414 C 
ATOM     43  O   UNL     1      -4.030  14.262  23.316  0.00  0.00    -0.240 OA
ATOM     44  O   UNL     1      -3.538  13.714  21.323  0.00  0.00    -0.240 OA
ENDBRANCH  33  42
BRANCH  35  45
ATOM     45  O   UNL     1      -4.429   9.463  20.823  0.00  0.00    -0.390 OA
ATOM     46  H   UNL     1      -3.531   9.133  20.752  0.00  0.00    +0.210 HD
ENDBRANCH  35  45
BRANCH  33  47
ATOM     47  O   UNL     1      -6.692  13.647  21.742  0.00  0.00    -0.343 OA
ATOM     48  C   UNL     1      -8.017  13.142  22.048  0.00  0.00    +0.198 C 
ENDBRANCH  33  47
ENDBRANCH  30  31
BRANCH  30  49
ATOM     49  O   UNL     1      -6.948  10.758  25.491  0.00  0.00    -0.387 OA
ATOM     50  H   UNL     1      -7.188  10.016  24.931  0.00  0.00    +0.210 HD
ENDBRANCH  30  49
ENDBRANCH  27  30
ENDBRANCH  26  27
ENDBRANCH   3  26
TORSDOF 18
