REMARK VINA RESULT:    -4.012      7.497     10.867
REMARK INTER + INTRA:         -11.302
REMARK INTER:                  -9.328
REMARK INTRA:                  -1.974
REMARK UNBOUND:                -3.890
REMARK  Name = lig_assembled_66.pdb
REMARK  18 active torsions:
REMARK  status: ('A' for Active; 'I' for Inactive)
REMARK    1  A    between atoms: _2  and  _10
REMARK    2  A    between atoms: _5  and  _21
REMARK    3  A    between atoms: _7  and  _8
REMARK    4  A    between atoms: _7  and  _21
REMARK    5  A    between atoms: _10  and  _11
REMARK    6  A    between atoms: _15  and  _16
REMARK    7  A    between atoms: _17  and  _37
REMARK    8  A    between atoms: _19  and  _25
REMARK    9  A    between atoms: _20  and  _24
REMARK   10  A    between atoms: _24  and  _25
REMARK   11  A    between atoms: _27  and  _28
REMARK   12  A    between atoms: _29  and  _30
REMARK   13  A    between atoms: _31  and  _33
REMARK   14  A    between atoms: _33  and  _34
REMARK   15  A    between atoms: _33  and  _35
REMARK   16  A    between atoms: _35  and  _36
REMARK   17  A    between atoms: _35  and  _37
REMARK   18  A    between atoms: _38  and  _40
REMARK                            x       y       z     vdW  Elec       q    Type
REMARK                         _______ _______ _______ _____ _____    ______ ____
ROOT
ATOM      1  C   UNL     1      -3.001  10.618  14.424  0.00  0.00    +0.163 C 
ENDROOT
BRANCH   1   2
ATOM      2  O   UNL     1      -2.389  10.313  13.160  0.00  0.00    -0.388 OA
ATOM      3  H   UNL     1      -1.603   9.781  13.304  0.00  0.00    +0.210 HD
ENDBRANCH   1   2
BRANCH   1   4
ATOM      4  C   UNL     1      -4.020  11.761  14.281  0.00  0.00    +0.175 C 
BRANCH   4   5
ATOM      5  C   UNL     1      -3.710  12.664  13.078  0.00  0.00    +0.176 C 
ATOM      6  O   UNL     1      -2.479  13.383  13.363  0.00  0.00    -0.332 OA
ATOM      7  C   UNL     1      -1.967  14.221  12.275  0.00  0.00    +0.277 C 
ATOM      8  C   UNL     1      -3.055  15.215  11.800  0.00  0.00    +0.110 C 
ATOM      9  C   UNL     1      -4.393  14.501  11.514  0.00  0.00    +0.143 C 
ATOM     10  C   UNL     1      -4.830  13.656  12.711  0.00  0.00    +0.133 C 
BRANCH  10  11
ATOM     11  N   UNL     1      -6.060  12.913  12.395  0.00  0.00    -0.308 N 
ATOM     12  H   UNL     1      -6.030  12.253  11.630  0.00  0.00    +0.149 HD
ATOM     13  C   UNL     1      -7.214  13.052  13.053  0.00  0.00    +0.210 C 
ATOM     14  C   UNL     1      -7.235  14.083  14.197  0.00  0.00    +0.109 C 
ATOM     15  O   UNL     1      -8.225  12.405  12.775  0.00  0.00    -0.276 OA
ENDBRANCH  10  11
BRANCH   7  16
ATOM     16  C   UNL     1      -1.508  13.353  11.085  0.00  0.00    +0.414 C 
ATOM     17  O   UNL     1      -1.609  13.774   9.934  0.00  0.00    -0.240 OA
ATOM     18  O   UNL     1      -1.036  12.231  11.277  0.00  0.00    -0.240 OA
ENDBRANCH   7  16
BRANCH   7  19
ATOM     19  O   UNL     1      -0.843  14.983  12.786  0.00  0.00    -0.343 OA
ATOM     20  C   UNL     1      -0.824  16.380  12.398  0.00  0.00    +0.198 C 
ENDBRANCH   7  19
BRANCH   9  21
ATOM     21  O   UNL     1      -5.404  15.469  11.227  0.00  0.00    -0.390 OA
ATOM     22  H   UNL     1      -5.586  15.985  12.016  0.00  0.00    +0.210 HD
ENDBRANCH   9  21
ENDBRANCH   4   5
BRANCH   4  23
ATOM     23  O   UNL     1      -4.063  12.544  15.491  0.00  0.00    -0.387 OA
ATOM     24  H   UNL     1      -3.456  13.284  15.415  0.00  0.00    +0.210 HD
ENDBRANCH   4  23
ENDBRANCH   1   4
BRANCH   1  25
ATOM     25  C   UNL     1      -3.698   9.380  14.979  0.00  0.00    +0.141 C 
BRANCH  25  28
ATOM     26  C   UNL     1      -5.134   9.003  16.953  0.00  0.00    +0.401 C 
ATOM     27  O   UNL     1      -5.966   8.331  16.338  0.00  0.00    -0.226 OA
ATOM     28  N   UNL     1      -4.047   9.537  16.396  0.00  0.00    -0.279 N 
ATOM     29  H   UNL     1      -3.429  10.081  16.982  0.00  0.00    +0.152 HD
BRANCH  26  30
ATOM     30  O   UNL     1      -5.330   9.239  18.350  0.00  0.00    -0.444 OA
BRANCH  30  31
ATOM     31  C   UNL     1      -5.561  10.633  18.571  0.00  0.00    +0.292 C 
BRANCH  31  33
ATOM     32  N   UNL     1      -3.906  10.319  20.388  0.00  0.00    -0.131 NA
ATOM     33  C   UNL     1      -4.890  11.075  19.810  0.00  0.00    +0.120 A 
ATOM     34  C   UNL     1      -5.058  12.230  20.540  0.00  0.00    +0.137 A 
ATOM     35  N   UNL     1      -4.108  12.145  21.516  0.00  0.00    -0.247 N 
ATOM     36  N   UNL     1      -3.430  10.985  21.433  0.00  0.00    -0.065 NA
BRANCH  35  37
ATOM     37  C   UNL     1      -3.629  13.212  22.376  0.00  0.00    +0.180 C 
BRANCH  37  38
ATOM     38  C   UNL     1      -3.677  12.864  23.842  0.00  0.00    -0.025 A 
ATOM     39  C   UNL     1      -4.636  13.453  24.679  0.00  0.00    +0.005 A 
ATOM     40  C   UNL     1      -4.742  13.075  26.020  0.00  0.00    +0.002 A 
ATOM     41  C   UNL     1      -3.875  12.117  26.546  0.00  0.00    +0.019 A 
ATOM     42  C   UNL     1      -2.890  11.546  25.734  0.00  0.00    +0.052 A 
ATOM     43  C   UNL     1      -2.793  11.918  24.387  0.00  0.00    +0.024 A 
BRANCH  42  44
ATOM     44  C   UNL     1      -1.988  10.573  26.277  0.00  0.00    +0.099 C 
ATOM     45  N   UNL     1      -1.259   9.779  26.710  0.00  0.00    -0.191 NA
ENDBRANCH  42  44
ENDBRANCH  37  38
ENDBRANCH  35  37
ENDBRANCH  31  33
ENDBRANCH  30  31
ENDBRANCH  26  30
ENDBRANCH  25  28
ENDBRANCH   1  25
TORSDOF 16
