REMARK VINA RESULT:    -4.785      2.743      6.112
REMARK INTER + INTRA:         -10.796
REMARK INTER:                  -7.524
REMARK INTRA:                  -3.272
REMARK UNBOUND:                -2.233
REMARK  Name = lig_assembled_61.pdb
REMARK  17 active torsions:
REMARK  status: ('A' for Active; 'I' for Inactive)
REMARK    1  A    between atoms: _2  and  _9
REMARK    2  A    between atoms: _4  and  _17
REMARK    3  A    between atoms: _6  and  _7
REMARK    4  A    between atoms: _6  and  _17
REMARK    5  A    between atoms: _9  and  _10
REMARK    6  A    between atoms: _13  and  _33
REMARK    7  A    between atoms: _15  and  _21
REMARK    8  A    between atoms: _16  and  _20
REMARK    9  A    between atoms: _20  and  _21
REMARK   10  A    between atoms: _23  and  _24
REMARK   11  A    between atoms: _25  and  _26
REMARK   12  A    between atoms: _27  and  _29
REMARK   13  A    between atoms: _29  and  _30
REMARK   14  A    between atoms: _29  and  _31
REMARK   15  A    between atoms: _31  and  _32
REMARK   16  A    between atoms: _31  and  _33
REMARK   17  A    between atoms: _34  and  _36
REMARK                            x       y       z     vdW  Elec       q    Type
REMARK                         _______ _______ _______ _____ _____    ______ ____
ROOT
ATOM      1  C   UNL     1      -2.107  10.183  27.289  0.00  0.00    +0.163 C 
ENDROOT
BRANCH   1   2
ATOM      2  O   UNL     1      -1.066   9.820  26.368  0.00  0.00    -0.388 OA
ATOM      3  H   UNL     1      -0.789  10.596  25.875  0.00  0.00    +0.210 HD
ENDBRANCH   1   2
BRANCH   1   4
ATOM      4  C   UNL     1      -2.222   9.131  28.388  0.00  0.00    +0.141 C 
BRANCH   4   7
ATOM      5  C   UNL     1      -3.539   8.788  30.450  0.00  0.00    +0.401 C 
ATOM      6  O   UNL     1      -3.344   7.570  30.485  0.00  0.00    -0.226 OA
ATOM      7  N   UNL     1      -3.058   9.593  29.503  0.00  0.00    -0.279 N 
ATOM      8  H   UNL     1      -3.281  10.577  29.555  0.00  0.00    +0.152 HD
BRANCH   5   9
ATOM      9  O   UNL     1      -4.331   9.393  31.476  0.00  0.00    -0.444 OA
BRANCH   9  10
ATOM     10  C   UNL     1      -3.520   9.627  32.630  0.00  0.00    +0.292 C 
BRANCH  10  12
ATOM     11  N   UNL     1      -1.956  11.482  32.144  0.00  0.00    -0.131 NA
ATOM     12  C   UNL     1      -3.128  11.047  32.705  0.00  0.00    +0.120 A 
ATOM     13  C   UNL     1      -3.776  12.116  33.283  0.00  0.00    +0.137 A 
ATOM     14  N   UNL     1      -2.920  13.160  33.092  0.00  0.00    -0.247 N 
ATOM     15  N   UNL     1      -1.847  12.785  32.371  0.00  0.00    -0.065 NA
BRANCH  14  16
ATOM     16  C   UNL     1      -3.070  14.537  33.527  0.00  0.00    +0.180 C 
BRANCH  16  17
ATOM     17  C   UNL     1      -4.018  15.302  32.645  0.00  0.00    -0.019 A 
ATOM     18  C   UNL     1      -3.722  15.723  31.304  0.00  0.00    +0.013 A 
ATOM     19  C   UNL     1      -4.749  16.441  30.730  0.00  0.00    +0.045 A 
ATOM     20  S   UNL     1      -6.080  16.607  31.786  0.00  0.00    -0.105 S 
ATOM     21  C   UNL     1      -5.282  15.730  33.016  0.00  0.00    +0.050 A 
ENDBRANCH  16  17
ENDBRANCH  14  16
ENDBRANCH  10  12
ENDBRANCH   9  10
ENDBRANCH   5   9
ENDBRANCH   4   7
ENDBRANCH   1   4
BRANCH   1  22
ATOM     22  C   UNL     1      -3.458  10.319  26.566  0.00  0.00    +0.175 C 
BRANCH  22  23
ATOM     23  C   UNL     1      -4.336  11.418  27.183  0.00  0.00    +0.176 C 
ATOM     24  O   UNL     1      -5.340  10.774  28.015  0.00  0.00    -0.332 OA
ATOM     25  C   UNL     1      -6.209  11.678  28.774  0.00  0.00    +0.277 C 
ATOM     26  C   UNL     1      -6.889  12.696  27.827  0.00  0.00    +0.110 C 
ATOM     27  C   UNL     1      -5.865  13.384  26.900  0.00  0.00    +0.143 C 
ATOM     28  C   UNL     1      -5.013  12.352  26.162  0.00  0.00    +0.133 C 
BRANCH  28  29
ATOM     29  N   UNL     1      -3.984  13.019  25.349  0.00  0.00    -0.308 N 
ATOM     30  H   UNL     1      -3.296  13.583  25.829  0.00  0.00    +0.149 HD
ATOM     31  C   UNL     1      -3.899  12.927  24.019  0.00  0.00    +0.210 C 
ATOM     32  C   UNL     1      -4.976  12.081  23.316  0.00  0.00    +0.109 C 
ATOM     33  O   UNL     1      -3.017  13.486  23.366  0.00  0.00    -0.276 OA
ENDBRANCH  28  29
BRANCH  25  34
ATOM     34  C   UNL     1      -5.404  12.433  29.852  0.00  0.00    +0.414 C 
ATOM     35  O   UNL     1      -4.174  12.429  29.824  0.00  0.00    -0.240 OA
ATOM     36  O   UNL     1      -5.984  13.047  30.749  0.00  0.00    -0.240 OA
ENDBRANCH  25  34
BRANCH  25  37
ATOM     37  O   UNL     1      -7.243  10.880  29.407  0.00  0.00    -0.343 OA
ATOM     38  C   UNL     1      -7.070   9.446  29.285  0.00  0.00    +0.198 C 
ENDBRANCH  25  37
BRANCH  27  39
ATOM     39  O   UNL     1      -6.549  14.198  25.947  0.00  0.00    -0.390 OA
ATOM     40  H   UNL     1      -6.165  14.064  25.077  0.00  0.00    +0.210 HD
ENDBRANCH  27  39
ENDBRANCH  22  23
BRANCH  22  41
ATOM     41  O   UNL     1      -4.158   9.059  26.579  0.00  0.00    -0.387 OA
ATOM     42  H   UNL     1      -4.637   8.967  27.406  0.00  0.00    +0.210 HD
ENDBRANCH  22  41
ENDBRANCH   1  22
TORSDOF 15
