REMARK VINA RESULT:    -5.212      5.044      6.967
REMARK INTER + INTRA:         -12.162
REMARK INTER:                  -9.472
REMARK INTRA:                  -2.690
REMARK UNBOUND:                -3.141
REMARK  Name = lig_assembled_91.pdb
REMARK  16 active torsions:
REMARK  status: ('A' for Active; 'I' for Inactive)
REMARK    1  A    between atoms: _2  and  _10
REMARK    2  A    between atoms: _5  and  _26
REMARK    3  A    between atoms: _7  and  _8
REMARK    4  A    between atoms: _7  and  _26
REMARK    5  A    between atoms: _22  and  _42
REMARK    6  A    between atoms: _24  and  _30
REMARK    7  A    between atoms: _25  and  _29
REMARK    8  A    between atoms: _29  and  _30
REMARK    9  A    between atoms: _32  and  _33
REMARK   10  A    between atoms: _34  and  _35
REMARK   11  A    between atoms: _36  and  _38
REMARK   12  A    between atoms: _38  and  _39
REMARK   13  A    between atoms: _38  and  _40
REMARK   14  A    between atoms: _40  and  _41
REMARK   15  A    between atoms: _40  and  _42
REMARK   16  A    between atoms: _43  and  _45
REMARK                            x       y       z     vdW  Elec       q    Type
REMARK                         _______ _______ _______ _____ _____    ______ ____
ROOT
ATOM      1  C   UNL     1      -7.544   9.466  20.310  0.00  0.00    +0.401 C 
ATOM      2  O   UNL     1      -6.510   8.893  19.959  0.00  0.00    -0.226 OA
ATOM      3  N   UNL     1      -8.069   9.376  21.532  0.00  0.00    -0.279 N 
ATOM      4  H   UNL     1      -8.915   9.892  21.728  0.00  0.00    +0.152 HD
ENDROOT
BRANCH   3   5
ATOM      5  C   UNL     1      -7.485   8.569  22.611  0.00  0.00    +0.141 C 
BRANCH   5   6
ATOM      6  C   UNL     1      -6.481   9.365  23.438  0.00  0.00    +0.163 C 
BRANCH   6   7
ATOM      7  O   UNL     1      -7.006   9.600  24.755  0.00  0.00    -0.388 OA
ATOM      8  H   UNL     1      -7.290   8.767  25.140  0.00  0.00    +0.210 HD
ENDBRANCH   6   7
BRANCH   6   9
ATOM      9  C   UNL     1      -5.149   8.599  23.505  0.00  0.00    +0.175 C 
BRANCH   9  10
ATOM     10  C   UNL     1      -4.052   9.408  24.212  0.00  0.00    +0.176 C 
ATOM     11  O   UNL     1      -4.370   9.449  25.630  0.00  0.00    -0.332 OA
ATOM     12  C   UNL     1      -3.371  10.096  26.486  0.00  0.00    +0.277 C 
ATOM     13  C   UNL     1      -3.065  11.526  25.976  0.00  0.00    +0.110 C 
ATOM     14  C   UNL     1      -2.752  11.537  24.465  0.00  0.00    +0.143 C 
ATOM     15  C   UNL     1      -3.855  10.836  23.671  0.00  0.00    +0.133 C 
BRANCH  15  16
ATOM     16  N   UNL     1      -3.503  10.777  22.243  0.00  0.00    -0.308 N 
ATOM     17  H   UNL     1      -2.751  10.160  21.968  0.00  0.00    +0.149 HD
ATOM     18  C   UNL     1      -4.112  11.484  21.288  0.00  0.00    +0.210 C 
ATOM     19  C   UNL     1      -5.236  12.433  21.743  0.00  0.00    +0.109 C 
ATOM     20  O   UNL     1      -3.806  11.403  20.098  0.00  0.00    -0.276 OA
ENDBRANCH  15  16
BRANCH  12  21
ATOM     21  C   UNL     1      -2.067   9.272  26.522  0.00  0.00    +0.414 C 
ATOM     22  O   UNL     1      -0.975   9.838  26.481  0.00  0.00    -0.240 OA
ATOM     23  O   UNL     1      -2.107   8.043  26.593  0.00  0.00    -0.240 OA
ENDBRANCH  12  21
BRANCH  14  24
ATOM     24  O   UNL     1      -2.627  12.884  24.009  0.00  0.00    -0.390 OA
ATOM     25  H   UNL     1      -1.805  13.258  24.336  0.00  0.00    +0.210 HD
ENDBRANCH  14  24
BRANCH  12  26
ATOM     26  O   UNL     1      -3.923  10.196  27.824  0.00  0.00    -0.343 OA
ATOM     27  C   UNL     1      -4.314  11.532  28.227  0.00  0.00    +0.198 C 
ENDBRANCH  12  26
ENDBRANCH   9  10
BRANCH   9  28
ATOM     28  O   UNL     1      -4.719   8.232  22.179  0.00  0.00    -0.387 OA
ATOM     29  H   UNL     1      -5.431   8.394  21.555  0.00  0.00    +0.210 HD
ENDBRANCH   9  28
ENDBRANCH   6   9
ENDBRANCH   5   6
ENDBRANCH   3   5
BRANCH   1  30
ATOM     30  O   UNL     1      -8.237  10.288  19.366  0.00  0.00    -0.444 OA
BRANCH  30  31
ATOM     31  C   UNL     1      -7.418  11.406  19.014  0.00  0.00    +0.292 C 
BRANCH  31  33
ATOM     32  N   UNL     1      -7.571  10.935  16.596  0.00  0.00    -0.131 NA
ATOM     33  C   UNL     1      -6.804  11.202  17.688  0.00  0.00    +0.121 A 
ATOM     34  C   UNL     1      -5.483  11.251  17.304  0.00  0.00    +0.143 A 
ATOM     35  N   UNL     1      -5.480  10.958  15.954  0.00  0.00    -0.218 N 
ATOM     36  N   UNL     1      -6.765  10.793  15.553  0.00  0.00    -0.060 NA
BRANCH  35  37
ATOM     37  C   UNL     1      -4.378  10.822  15.055  0.00  0.00    +0.085 A 
ATOM     38  C   UNL     1      -3.674   9.568  14.955  0.00  0.00    +0.026 A 
ATOM     39  C   UNL     1      -2.589   9.549  14.057  0.00  0.00    +0.074 A 
ATOM     40  C   UNL     1      -1.835   8.399  13.878  0.00  0.00    +0.028 A 
ATOM     41  C   UNL     1      -2.109   7.218  14.558  0.00  0.00    +0.002 A 
ATOM     42  C   UNL     1      -3.185   7.179  15.421  0.00  0.00    +0.001 A 
ATOM     43  N   UNL     1      -2.223  10.591  13.315  0.00  0.00    -0.247 NA
ATOM     44  C   UNL     1      -2.893  11.739  13.388  0.00  0.00    +0.074 A 
ATOM     45  C   UNL     1      -2.423  12.762  12.571  0.00  0.00    +0.028 A 
ATOM     46  C   UNL     1      -2.995  14.030  12.563  0.00  0.00    +0.002 A 
ATOM     47  C   UNL     1      -4.059  14.289  13.404  0.00  0.00    +0.001 A 
ATOM     48  C   UNL     1      -4.540  13.273  14.237  0.00  0.00    +0.012 A 
ATOM     49  C   UNL     1      -3.968   8.325  15.601  0.00  0.00    +0.012 A 
ATOM     50  C   UNL     1      -3.985  11.952  14.245  0.00  0.00    +0.026 A 
ENDBRANCH  35  37
ENDBRANCH  31  33
ENDBRANCH  30  31
ENDBRANCH   1  30
TORSDOF 14
