REMARK VINA RESULT:    -5.263      9.497     14.268
REMARK INTER + INTRA:         -12.195
REMARK INTER:                  -9.142
REMARK INTRA:                  -3.054
REMARK UNBOUND:                -2.779
REMARK  Name = lig_assembled_39.pdb
REMARK  17 active torsions:
REMARK  status: ('A' for Active; 'I' for Inactive)
REMARK    1  A    between atoms: _2  and  _9
REMARK    2  A    between atoms: _4  and  _19
REMARK    3  A    between atoms: _6  and  _7
REMARK    4  A    between atoms: _6  and  _19
REMARK    5  A    between atoms: _9  and  _10
REMARK    6  A    between atoms: _15  and  _35
REMARK    7  A    between atoms: _17  and  _23
REMARK    8  A    between atoms: _18  and  _22
REMARK    9  A    between atoms: _22  and  _23
REMARK   10  A    between atoms: _25  and  _26
REMARK   11  A    between atoms: _27  and  _28
REMARK   12  A    between atoms: _29  and  _31
REMARK   13  A    between atoms: _31  and  _32
REMARK   14  A    between atoms: _31  and  _33
REMARK   15  A    between atoms: _33  and  _34
REMARK   16  A    between atoms: _33  and  _35
REMARK   17  A    between atoms: _36  and  _38
REMARK                            x       y       z     vdW  Elec       q    Type
REMARK                         _______ _______ _______ _____ _____    ______ ____
ROOT
ATOM      1  C   UNL     1      -1.822   8.457  13.463  0.00  0.00    +0.163 C 
ENDROOT
BRANCH   1   2
ATOM      2  O   UNL     1      -2.178   8.209  12.093  0.00  0.00    -0.388 OA
ATOM      3  H   UNL     1      -2.624   8.980  11.734  0.00  0.00    +0.210 HD
ENDBRANCH   1   2
BRANCH   1   4
ATOM      4  C   UNL     1      -1.829   7.149  14.249  0.00  0.00    +0.141 C 
BRANCH   4   7
ATOM      5  C   UNL     1      -2.869   6.626  16.428  0.00  0.00    +0.401 C 
ATOM      6  O   UNL     1      -1.821   6.219  16.936  0.00  0.00    -0.226 OA
ATOM      7  N   UNL     1      -2.965   7.074  15.176  0.00  0.00    -0.279 N 
ATOM      8  H   UNL     1      -3.870   7.379  14.846  0.00  0.00    +0.152 HD
BRANCH   5   9
ATOM      9  O   UNL     1      -4.066   6.625  17.210  0.00  0.00    -0.444 OA
BRANCH   9  10
ATOM     10  C   UNL     1      -5.040   7.472  16.594  0.00  0.00    +0.292 C 
BRANCH  10  12
ATOM     11  N   UNL     1      -7.161   8.003  17.755  0.00  0.00    -0.131 NA
ATOM     12  C   UNL     1      -5.811   8.199  17.619  0.00  0.00    +0.120 A 
ATOM     13  C   UNL     1      -5.389   9.105  18.566  0.00  0.00    +0.137 A 
ATOM     14  N   UNL     1      -6.513   9.359  19.297  0.00  0.00    -0.247 N 
ATOM     15  N   UNL     1      -7.587   8.744  18.768  0.00  0.00    -0.065 NA
BRANCH  14  16
ATOM     16  C   UNL     1      -6.623  10.113  20.537  0.00  0.00    +0.181 C 
BRANCH  16  17
ATOM     17  C   UNL     1      -5.333  10.811  20.930  0.00  0.00    -0.012 A 
ATOM     18  C   UNL     1      -4.954  12.029  20.331  0.00  0.00    +0.006 A 
ATOM     19  C   UNL     1      -3.767  12.679  20.680  0.00  0.00    +0.000 A 
ATOM     20  C   UNL     1      -2.917  12.113  21.620  0.00  0.00    +0.001 A 
ATOM     21  C   UNL     1      -3.243  10.888  22.197  0.00  0.00    +0.015 A 
ATOM     22  C   UNL     1      -4.434  10.235  21.849  0.00  0.00    +0.023 A 
ATOM     23 BR   UNL     1      -4.745   8.542  22.657  0.00  0.00    -0.050 Br
ENDBRANCH  16  17
ENDBRANCH  14  16
ENDBRANCH  10  12
ENDBRANCH   9  10
ENDBRANCH   5   9
ENDBRANCH   4   7
ENDBRANCH   1   4
BRANCH   1  24
ATOM     24  C   UNL     1      -2.797   9.453  14.114  0.00  0.00    +0.175 C 
BRANCH  24  25
ATOM     25  C   UNL     1      -3.125  10.631  13.185  0.00  0.00    +0.176 C 
ATOM     26  O   UNL     1      -1.886  11.069  12.564  0.00  0.00    -0.332 OA
ATOM     27  C   UNL     1      -2.021  12.126  11.557  0.00  0.00    +0.277 C 
ATOM     28  C   UNL     1      -2.769  13.345  12.149  0.00  0.00    +0.110 C 
ATOM     29  C   UNL     1      -4.079  12.925  12.849  0.00  0.00    +0.143 C 
ATOM     30  C   UNL     1      -3.823  11.819  13.873  0.00  0.00    +0.133 C 
BRANCH  30  31
ATOM     31  N   UNL     1      -5.089  11.367  14.471  0.00  0.00    -0.308 N 
ATOM     32  H   UNL     1      -5.743  10.878  13.875  0.00  0.00    +0.149 HD
ATOM     33  C   UNL     1      -5.431  11.560  15.747  0.00  0.00    +0.210 C 
ATOM     34  C   UNL     1      -4.424  12.331  16.621  0.00  0.00    +0.109 C 
ATOM     35  O   UNL     1      -6.492  11.157  16.224  0.00  0.00    -0.276 OA
ENDBRANCH  30  31
BRANCH  27  36
ATOM     36  C   UNL     1      -2.780  11.607  10.318  0.00  0.00    +0.414 C 
ATOM     37  O   UNL     1      -2.707  10.422   9.997  0.00  0.00    -0.240 OA
ATOM     38  O   UNL     1      -3.466  12.374   9.640  0.00  0.00    -0.240 OA
ENDBRANCH  27  36
BRANCH  27  39
ATOM     39  O   UNL     1      -0.688  12.551  11.170  0.00  0.00    -0.343 OA
ATOM     40  C   UNL     1      -0.396  13.949  11.415  0.00  0.00    +0.198 C 
ENDBRANCH  27  39
BRANCH  29  41
ATOM     41  O   UNL     1      -4.656  14.053  13.508  0.00  0.00    -0.390 OA
ATOM     42  H   UNL     1      -4.800  13.843  14.434  0.00  0.00    +0.210 HD
ENDBRANCH  29  41
ENDBRANCH  24  25
BRANCH  24  43
ATOM     43  O   UNL     1      -2.255   9.938  15.359  0.00  0.00    -0.387 OA
ATOM     44  H   UNL     1      -2.969  10.248  15.920  0.00  0.00    +0.210 HD
ENDBRANCH  24  43
ENDBRANCH   1  24
TORSDOF 15
