REMARK VINA RESULT:    -5.188      2.993      9.770
REMARK INTER + INTRA:         -10.792
REMARK INTER:                  -7.975
REMARK INTRA:                  -2.817
REMARK UNBOUND:                -1.813
REMARK  Name = lig_assembled_40.pdb
REMARK  17 active torsions:
REMARK  status: ('A' for Active; 'I' for Inactive)
REMARK    1  A    between atoms: _2  and  _9
REMARK    2  A    between atoms: _4  and  _19
REMARK    3  A    between atoms: _6  and  _7
REMARK    4  A    between atoms: _6  and  _19
REMARK    5  A    between atoms: _12  and  _13
REMARK    6  A    between atoms: _15  and  _35
REMARK    7  A    between atoms: _17  and  _23
REMARK    8  A    between atoms: _18  and  _22
REMARK    9  A    between atoms: _22  and  _23
REMARK   10  A    between atoms: _25  and  _26
REMARK   11  A    between atoms: _27  and  _28
REMARK   12  A    between atoms: _29  and  _31
REMARK   13  A    between atoms: _31  and  _32
REMARK   14  A    between atoms: _31  and  _33
REMARK   15  A    between atoms: _33  and  _34
REMARK   16  A    between atoms: _33  and  _35
REMARK   17  A    between atoms: _36  and  _38
REMARK                            x       y       z     vdW  Elec       q    Type
REMARK                         _______ _______ _______ _____ _____    ______ ____
ROOT
ATOM      1  C   UNL     1      -5.412   8.783  24.379  0.00  0.00    +0.163 C 
ENDROOT
BRANCH   1   2
ATOM      2  O   UNL     1      -4.989   9.226  25.679  0.00  0.00    -0.388 OA
ATOM      3  H   UNL     1      -4.030   9.216  25.724  0.00  0.00    +0.210 HD
ENDBRANCH   1   2
BRANCH   1   4
ATOM      4  C   UNL     1      -5.611   7.271  24.381  0.00  0.00    +0.141 C 
BRANCH   4   7
ATOM      5  C   UNL     1      -3.814   5.892  25.367  0.00  0.00    +0.401 C 
ATOM      6  O   UNL     1      -3.269   5.661  24.285  0.00  0.00    -0.226 OA
ATOM      7  N   UNL     1      -4.916   6.630  25.504  0.00  0.00    -0.279 N 
ATOM      8  H   UNL     1      -5.294   6.754  26.433  0.00  0.00    +0.152 HD
BRANCH   5   9
ATOM      9  O   UNL     1      -3.249   5.342  26.560  0.00  0.00    -0.444 OA
BRANCH   9  10
ATOM     10  C   UNL     1      -1.986   5.960  26.820  0.00  0.00    +0.292 C 
BRANCH  10  12
ATOM     11  N   UNL     1      -1.947   8.391  26.360  0.00  0.00    -0.131 NA
ATOM     12  C   UNL     1      -2.177   7.365  27.229  0.00  0.00    +0.121 A 
ATOM     13  C   UNL     1      -2.594   7.879  28.433  0.00  0.00    +0.143 A 
ATOM     14  N   UNL     1      -2.637   9.242  28.244  0.00  0.00    -0.220 N 
ATOM     15  N   UNL     1      -2.220   9.530  26.985  0.00  0.00    -0.060 NA
BRANCH  14  16
ATOM     16  C   UNL     1      -3.076  10.247  29.145  0.00  0.00    +0.067 A 
ATOM     17  C   UNL     1      -2.882  10.108  30.523  0.00  0.00    +0.028 A 
ATOM     18  C   UNL     1      -3.381  11.073  31.404  0.00  0.00    +0.005 A 
ATOM     19  C   UNL     1      -4.079  12.184  30.921  0.00  0.00    -0.050 A 
ATOM     20  C   UNL     1      -4.241  12.339  29.540  0.00  0.00    +0.005 A 
ATOM     21  C   UNL     1      -4.657  13.196  31.865  0.00  0.00    +0.044 C 
ATOM     22  C   UNL     1      -3.744  11.379  28.654  0.00  0.00    +0.028 A 
ENDBRANCH  14  16
ENDBRANCH  10  12
ENDBRANCH   9  10
ENDBRANCH   5   9
ENDBRANCH   4   7
ENDBRANCH   1   4
BRANCH   1  23
ATOM     23  C   UNL     1      -4.378   9.164  23.305  0.00  0.00    +0.175 C 
BRANCH  23  24
ATOM     24  C   UNL     1      -4.956  10.134  22.264  0.00  0.00    +0.176 C 
ATOM     25  O   UNL     1      -4.567   9.660  20.946  0.00  0.00    -0.332 OA
ATOM     26  C   UNL     1      -5.121  10.409  19.814  0.00  0.00    +0.277 C 
ATOM     27  C   UNL     1      -4.789  11.916  19.947  0.00  0.00    +0.110 C 
ATOM     28  C   UNL     1      -5.156  12.458  21.345  0.00  0.00    +0.143 C 
ATOM     29  C   UNL     1      -4.530  11.603  22.447  0.00  0.00    +0.133 C 
BRANCH  29  30
ATOM     30  N   UNL     1      -4.958  12.077  23.773  0.00  0.00    -0.308 N 
ATOM     31  H   UNL     1      -5.939  12.007  24.005  0.00  0.00    +0.149 HD
ATOM     32  C   UNL     1      -4.135  12.595  24.689  0.00  0.00    +0.210 C 
ATOM     33  C   UNL     1      -2.651  12.713  24.294  0.00  0.00    +0.109 C 
ATOM     34  O   UNL     1      -4.519  12.971  25.797  0.00  0.00    -0.276 OA
ENDBRANCH  29  30
BRANCH  26  35
ATOM     35  C   UNL     1      -6.650  10.223  19.731  0.00  0.00    +0.414 C 
ATOM     36  O   UNL     1      -7.367  11.145  19.342  0.00  0.00    -0.240 OA
ATOM     37  O   UNL     1      -7.167   9.153  20.053  0.00  0.00    -0.240 OA
ENDBRANCH  26  35
BRANCH  28  38
ATOM     38  O   UNL     1      -4.697  13.804  21.475  0.00  0.00    -0.390 OA
ATOM     39  H   UNL     1      -3.796  13.805  21.808  0.00  0.00    +0.210 HD
ENDBRANCH  28  38
BRANCH  26  40
ATOM     40  O   UNL     1      -4.502   9.911  18.600  0.00  0.00    -0.343 OA
ATOM     41  C   UNL     1      -4.488  10.845  17.491  0.00  0.00    +0.198 C 
ENDBRANCH  26  40
ENDBRANCH  23  24
BRANCH  23  42
ATOM     42  O   UNL     1      -3.879   7.978  22.654  0.00  0.00    -0.387 OA
ATOM     43  H   UNL     1      -4.584   7.330  22.584  0.00  0.00    +0.210 HD
ENDBRANCH  23  42
ENDBRANCH   1  23
TORSDOF 14
