REMARK VINA RESULT:    -4.843      4.388     12.257
REMARK INTER + INTRA:         -11.821
REMARK INTER:                  -8.593
REMARK INTRA:                  -3.227
REMARK UNBOUND:                -2.590
REMARK  Name = lig_assembled_29.pdb
REMARK  21 active torsions:
REMARK  status: ('A' for Active; 'I' for Inactive)
REMARK    1  A    between atoms: _2  and  _9
REMARK    2  A    between atoms: _4  and  _23
REMARK    3  A    between atoms: _6  and  _7
REMARK    4  A    between atoms: _6  and  _23
REMARK    5  A    between atoms: _9  and  _10
REMARK    6  A    between atoms: _12  and  _18
REMARK    7  A    between atoms: _13  and  _18
REMARK    8  A    between atoms: _14  and  _17
REMARK    9  A    between atoms: _15  and  _17
REMARK   10  A    between atoms: _19  and  _39
REMARK   11  A    between atoms: _21  and  _27
REMARK   12  A    between atoms: _22  and  _26
REMARK   13  A    between atoms: _26  and  _27
REMARK   14  A    between atoms: _29  and  _30
REMARK   15  A    between atoms: _31  and  _32
REMARK   16  A    between atoms: _33  and  _35
REMARK   17  A    between atoms: _35  and  _36
REMARK   18  A    between atoms: _35  and  _37
REMARK   19  A    between atoms: _37  and  _38
REMARK   20  A    between atoms: _37  and  _39
REMARK   21  A    between atoms: _40  and  _42
REMARK                            x       y       z     vdW  Elec       q    Type
REMARK                         _______ _______ _______ _____ _____    ______ ____
ROOT
ATOM      1  C   UNL     1      -1.937   8.447  13.367  0.00  0.00    +0.163 C 
ENDROOT
BRANCH   1   2
ATOM      2  O   UNL     1      -2.312   8.260  11.993  0.00  0.00    -0.388 OA
ATOM      3  H   UNL     1      -1.814   7.528  11.621  0.00  0.00    +0.210 HD
ENDBRANCH   1   2
BRANCH   1   4
ATOM      4  C   UNL     1      -2.863   9.463  14.057  0.00  0.00    +0.175 C 
BRANCH   4   5
ATOM      5  C   UNL     1      -3.181  10.663  13.152  0.00  0.00    +0.176 C 
ATOM      6  O   UNL     1      -1.949  11.066  12.495  0.00  0.00    -0.332 OA
ATOM      7  C   UNL     1      -2.080  12.139  11.505  0.00  0.00    +0.277 C 
ATOM      8  C   UNL     1      -2.767  13.376  12.134  0.00  0.00    +0.110 C 
ATOM      9  C   UNL     1      -4.067  12.991  12.872  0.00  0.00    +0.143 C 
ATOM     10  C   UNL     1      -3.816  11.865  13.875  0.00  0.00    +0.133 C 
BRANCH  10  11
ATOM     11  N   UNL     1      -5.077  11.449  14.509  0.00  0.00    -0.308 N 
ATOM     12  H   UNL     1      -5.770  10.999  13.928  0.00  0.00    +0.149 HD
ATOM     13  C   UNL     1      -5.364  11.625  15.801  0.00  0.00    +0.210 C 
ATOM     14  C   UNL     1      -4.297  12.336  16.654  0.00  0.00    +0.109 C 
ATOM     15  O   UNL     1      -6.423  11.253  16.308  0.00  0.00    -0.276 OA
ENDBRANCH  10  11
BRANCH   7  16
ATOM     16  C   UNL     1      -2.896  11.661  10.286  0.00  0.00    +0.414 C 
ATOM     17  O   UNL     1      -3.393  10.535  10.275  0.00  0.00    -0.240 OA
ATOM     18  O   UNL     1      -3.057  12.400   9.314  0.00  0.00    -0.240 OA
ENDBRANCH   7  16
BRANCH   7  19
ATOM     19  O   UNL     1      -0.747  12.523  11.080  0.00  0.00    -0.343 OA
ATOM     20  C   UNL     1      -0.400  13.909  11.330  0.00  0.00    +0.198 C 
ENDBRANCH   7  19
BRANCH   9  21
ATOM     21  O   UNL     1      -4.584  14.130  13.562  0.00  0.00    -0.390 OA
ATOM     22  H   UNL     1      -5.454  13.924  13.912  0.00  0.00    +0.210 HD
ENDBRANCH   9  21
ENDBRANCH   4   5
BRANCH   4  23
ATOM     23  O   UNL     1      -2.272   9.916  15.292  0.00  0.00    -0.387 OA
ATOM     24  H   UNL     1      -2.794   9.597  16.032  0.00  0.00    +0.210 HD
ENDBRANCH   4  23
ENDBRANCH   1   4
BRANCH   1  25
ATOM     25  C   UNL     1      -1.997   7.116  14.110  0.00  0.00    +0.141 C 
BRANCH  25  28
ATOM     26  C   UNL     1      -4.313   6.267  13.964  0.00  0.00    +0.401 C 
ATOM     27  O   UNL     1      -4.202   5.895  12.793  0.00  0.00    -0.226 OA
ATOM     28  N   UNL     1      -3.335   6.854  14.655  0.00  0.00    -0.279 N 
ATOM     29  H   UNL     1      -3.525   7.133  15.607  0.00  0.00    +0.152 HD
BRANCH  26  30
ATOM     30  O   UNL     1      -5.558   6.073  14.640  0.00  0.00    -0.444 OA
BRANCH  30  31
ATOM     31  C   UNL     1      -6.048   7.332  15.110  0.00  0.00    +0.292 C 
BRANCH  31  33
ATOM     32  N   UNL     1      -4.885   6.947  17.266  0.00  0.00    -0.131 NA
ATOM     33  C   UNL     1      -5.985   7.392  16.582  0.00  0.00    +0.120 A 
ATOM     34  C   UNL     1      -6.905   7.882  17.481  0.00  0.00    +0.137 A 
ATOM     35  N   UNL     1      -6.267   7.793  18.684  0.00  0.00    -0.247 N 
ATOM     36  N   UNL     1      -5.073   7.188  18.558  0.00  0.00    -0.065 NA
BRANCH  35  37
ATOM     37  C   UNL     1      -6.706   8.301  19.970  0.00  0.00    +0.180 C 
BRANCH  37  38
ATOM     38  C   UNL     1      -5.773   9.382  20.467  0.00  0.00    -0.022 A 
ATOM     39  C   UNL     1      -5.066   9.207  21.669  0.00  0.00    +0.054 A 
ATOM     40  C   UNL     1      -4.139  10.167  22.102  0.00  0.00    +0.162 A 
ATOM     41  C   UNL     1      -3.921  11.323  21.326  0.00  0.00    +0.162 A 
ATOM     42  C   UNL     1      -4.625  11.494  20.132  0.00  0.00    +0.050 A 
ATOM     43  C   UNL     1      -5.546  10.533  19.707  0.00  0.00    +0.009 A 
BRANCH  40  44
ATOM     44  O   UNL     1      -3.394  10.060  23.251  0.00  0.00    -0.491 OA
ATOM     45  C   UNL     1      -3.965   9.360  24.348  0.00  0.00    +0.277 C 
ENDBRANCH  40  44
BRANCH  41  46
ATOM     46  O   UNL     1      -3.002  12.217  21.820  0.00  0.00    -0.491 OA
ATOM     47  C   UNL     1      -3.018  13.537  21.295  0.00  0.00    +0.277 C 
ENDBRANCH  41  46
ENDBRANCH  37  38
ENDBRANCH  35  37
ENDBRANCH  31  33
ENDBRANCH  30  31
ENDBRANCH  26  30
ENDBRANCH  25  28
ENDBRANCH   1  25
TORSDOF 17
