REMARK VINA RESULT:    -4.070      3.702      7.336
REMARK INTER + INTRA:         -10.890
REMARK INTER:                  -7.443
REMARK INTRA:                  -3.447
REMARK UNBOUND:                -2.894
REMARK  Name = lig_assembled_17.pdb
REMARK  22 active torsions:
REMARK  status: ('A' for Active; 'I' for Inactive)
REMARK    1  A    between atoms: _2  and  _10
REMARK    2  A    between atoms: _3  and  _11
REMARK    3  A    between atoms: _3  and  _12
REMARK    4  A    between atoms: _3  and  _14
REMARK    5  A    between atoms: _5  and  _19
REMARK    6  A    between atoms: _6  and  _14
REMARK    7  A    between atoms: _7  and  _8
REMARK    8  A    between atoms: _7  and  _19
REMARK    9  A    between atoms: _10  and  _11
REMARK   10  A    between atoms: _12  and  _13
REMARK   11  A    between atoms: _15  and  _35
REMARK   12  A    between atoms: _17  and  _23
REMARK   13  A    between atoms: _18  and  _22
REMARK   14  A    between atoms: _22  and  _23
REMARK   15  A    between atoms: _25  and  _26
REMARK   16  A    between atoms: _27  and  _28
REMARK   17  A    between atoms: _29  and  _31
REMARK   18  A    between atoms: _31  and  _32
REMARK   19  A    between atoms: _31  and  _33
REMARK   20  A    between atoms: _33  and  _34
REMARK   21  A    between atoms: _33  and  _35
REMARK   22  A    between atoms: _36  and  _38
REMARK                            x       y       z     vdW  Elec       q    Type
REMARK                         _______ _______ _______ _____ _____    ______ ____
ROOT
ATOM      1  C   UNL     1      -2.928  11.697  24.803  0.00  0.00    +0.163 C 
ENDROOT
BRANCH   1   2
ATOM      2  O   UNL     1      -3.211  11.659  26.212  0.00  0.00    -0.388 OA
ATOM      3  H   UNL     1      -3.582  12.501  26.487  0.00  0.00    +0.210 HD
ENDBRANCH   1   2
BRANCH   1   4
ATOM      4  C   UNL     1      -3.839  10.726  24.033  0.00  0.00    +0.175 C 
BRANCH   4   5
ATOM      5  C   UNL     1      -4.200   9.487  24.866  0.00  0.00    +0.176 C 
ATOM      6  O   UNL     1      -2.963   8.913  25.371  0.00  0.00    -0.332 OA
ATOM      7  C   UNL     1      -3.119   7.774  26.282  0.00  0.00    +0.277 C 
ATOM      8  C   UNL     1      -3.979   6.668  25.623  0.00  0.00    +0.110 C 
ATOM      9  C   UNL     1      -5.291   7.237  25.043  0.00  0.00    +0.143 C 
ATOM     10  C   UNL     1      -5.013   8.418  24.112  0.00  0.00    +0.133 C 
BRANCH  10  11
ATOM     11  N   UNL     1      -6.274   9.006  23.634  0.00  0.00    -0.308 N 
ATOM     12  H   UNL     1      -6.855   9.487  24.307  0.00  0.00    +0.149 HD
ATOM     13  C   UNL     1      -6.701   8.945  22.370  0.00  0.00    +0.210 C 
ATOM     14  C   UNL     1      -5.806   8.183  21.375  0.00  0.00    +0.109 C 
ATOM     15  O   UNL     1      -7.755   9.460  21.995  0.00  0.00    -0.276 OA
ENDBRANCH  10  11
BRANCH   7  16
ATOM     16  C   UNL     1      -3.775   8.219  27.605  0.00  0.00    +0.414 C 
ATOM     17  O   UNL     1      -4.524   7.454  28.214  0.00  0.00    -0.240 OA
ATOM     18  O   UNL     1      -3.557   9.340  28.065  0.00  0.00    -0.240 OA
ENDBRANCH   7  16
BRANCH   9  19
ATOM     19  O   UNL     1      -5.978   6.217  24.316  0.00  0.00    -0.390 OA
ATOM     20  H   UNL     1      -6.917   6.260  24.514  0.00  0.00    +0.210 HD
ENDBRANCH   9  19
BRANCH   7  21
ATOM     21  O   UNL     1      -1.801   7.230  26.549  0.00  0.00    -0.343 OA
ATOM     22  C   UNL     1      -1.756   5.792  26.726  0.00  0.00    +0.198 C 
ENDBRANCH   7  21
ENDBRANCH   4   5
BRANCH   4  23
ATOM     23  O   UNL     1      -3.210  10.328  22.798  0.00  0.00    -0.387 OA
ATOM     24  H   UNL     1      -3.673   9.571  22.432  0.00  0.00    +0.210 HD
ENDBRANCH   4  23
ENDBRANCH   1   4
BRANCH   1  25
ATOM     25  C   UNL     1      -3.124  13.112  24.270  0.00  0.00    +0.141 C 
BRANCH  25  28
ATOM     26  C   UNL     1      -4.399  14.202  22.455  0.00  0.00    +0.401 C 
ATOM     27  O   UNL     1      -3.669  15.195  22.411  0.00  0.00    -0.226 OA
ATOM     28  N   UNL     1      -4.222  13.183  23.297  0.00  0.00    -0.279 N 
ATOM     29  H   UNL     1      -4.879  12.417  23.263  0.00  0.00    +0.152 HD
BRANCH  26  30
ATOM     30  O   UNL     1      -5.511  14.117  21.560  0.00  0.00    -0.444 OA
BRANCH  30  31
ATOM     31  C   UNL     1      -6.109  12.822  21.662  0.00  0.00    +0.292 C 
BRANCH  31  33
ATOM     32  N   UNL     1      -4.460  11.481  20.400  0.00  0.00    -0.131 NA
ATOM     33  C   UNL     1      -5.727  11.992  20.505  0.00  0.00    +0.120 A 
ATOM     34  C   UNL     1      -6.470  11.586  19.419  0.00  0.00    +0.137 A 
ATOM     35  N   UNL     1      -5.603  10.816  18.703  0.00  0.00    -0.250 N 
ATOM     36  N   UNL     1      -4.394  10.763  19.288  0.00  0.00    -0.065 NA
BRANCH  35  37
ATOM     37  C   UNL     1      -5.854  10.067  17.489  0.00  0.00    +0.160 C 
BRANCH  37  38
ATOM     38  C   UNL     1      -5.567  10.930  16.253  0.00  0.00    +0.107 C 
BRANCH  38  39
ATOM     39  N   UNL     1      -4.139  11.235  15.990  0.00  0.00    -0.301 NA
BRANCH  39  40
ATOM     40  C   UNL     1      -3.618  10.590  14.771  0.00  0.00    +0.081 C 
ATOM     41  C   UNL     1      -2.717   9.376  14.975  0.00  0.00    +0.020 C 
ENDBRANCH  39  40
BRANCH  39  42
ATOM     42  C   UNL     1      -3.956  12.702  16.000  0.00  0.00    +0.081 C 
ATOM     43  C   UNL     1      -3.981  13.361  14.625  0.00  0.00    +0.020 C 
ENDBRANCH  39  42
ENDBRANCH  38  39
ENDBRANCH  37  38
ENDBRANCH  35  37
ENDBRANCH  31  33
ENDBRANCH  30  31
ENDBRANCH  26  30
ENDBRANCH  25  28
ENDBRANCH   1  25
TORSDOF 18
