REMARK VINA RESULT:    -4.984      3.577      6.665
REMARK INTER + INTRA:         -12.178
REMARK INTER:                  -9.024
REMARK INTRA:                  -3.154
REMARK UNBOUND:                -2.678
REMARK  Name = lig_assembled_26.pdb
REMARK  20 active torsions:
REMARK  status: ('A' for Active; 'I' for Inactive)
REMARK    1  A    between atoms: _2  and  _9
REMARK    2  A    between atoms: _4  and  _23
REMARK    3  A    between atoms: _6  and  _7
REMARK    4  A    between atoms: _6  and  _23
REMARK    5  A    between atoms: _9  and  _10
REMARK    6  A    between atoms: _9  and  _11
REMARK    7  A    between atoms: _11  and  _12
REMARK    8  A    between atoms: _12  and  _13
REMARK    9  A    between atoms: _19  and  _39
REMARK   10  A    between atoms: _21  and  _27
REMARK   11  A    between atoms: _22  and  _26
REMARK   12  A    between atoms: _26  and  _27
REMARK   13  A    between atoms: _29  and  _30
REMARK   14  A    between atoms: _31  and  _32
REMARK   15  A    between atoms: _33  and  _35
REMARK   16  A    between atoms: _35  and  _36
REMARK   17  A    between atoms: _35  and  _37
REMARK   18  A    between atoms: _37  and  _38
REMARK   19  A    between atoms: _37  and  _39
REMARK   20  A    between atoms: _40  and  _42
REMARK                            x       y       z     vdW  Elec       q    Type
REMARK                         _______ _______ _______ _____ _____    ______ ____
ROOT
ATOM      1  C   UNL     1      -4.290   9.253  29.461  0.00  0.00    +0.163 C 
ENDROOT
BRANCH   1   2
ATOM      2  O   UNL     1      -4.826   8.805  30.717  0.00  0.00    -0.388 OA
ATOM      3  H   UNL     1      -5.665   8.363  30.567  0.00  0.00    +0.210 HD
ENDBRANCH   1   2
BRANCH   1   4
ATOM      4  C   UNL     1      -3.029  10.108  29.675  0.00  0.00    +0.175 C 
BRANCH   4   5
ATOM      5  C   UNL     1      -3.370  11.550  30.077  0.00  0.00    +0.176 C 
ATOM      6  O   UNL     1      -3.759  11.543  31.478  0.00  0.00    -0.332 OA
ATOM      7  C   UNL     1      -4.021  12.858  32.070  0.00  0.00    +0.277 C 
ATOM      8  C   UNL     1      -5.077  13.626  31.238  0.00  0.00    +0.110 C 
ATOM      9  C   UNL     1      -4.723  13.633  29.736  0.00  0.00    +0.143 C 
ATOM     10  C   UNL     1      -4.468  12.214  29.225  0.00  0.00    +0.133 C 
BRANCH  10  11
ATOM     11  N   UNL     1      -4.046  12.242  27.816  0.00  0.00    -0.308 N 
ATOM     12  H   UNL     1      -3.123  12.594  27.606  0.00  0.00    +0.149 HD
ATOM     13  C   UNL     1      -4.805  11.832  26.795  0.00  0.00    +0.210 C 
ATOM     14  C   UNL     1      -6.217  11.326  27.145  0.00  0.00    +0.109 C 
ATOM     15  O   UNL     1      -4.420  11.853  25.626  0.00  0.00    -0.276 OA
ENDBRANCH  10  11
BRANCH   7  16
ATOM     16  C   UNL     1      -2.724  13.690  32.150  0.00  0.00    +0.414 C 
ATOM     17  O   UNL     1      -1.669  13.162  32.498  0.00  0.00    -0.240 OA
ATOM     18  O   UNL     1      -2.733  14.889  31.867  0.00  0.00    -0.240 OA
ENDBRANCH   7  16
BRANCH   7  19
ATOM     19  O   UNL     1      -4.552  12.652  33.405  0.00  0.00    -0.343 OA
ATOM     20  C   UNL     1      -5.156  11.353  33.629  0.00  0.00    +0.198 C 
ENDBRANCH   7  19
BRANCH   9  21
ATOM     21  O   UNL     1      -5.793  14.215  28.991  0.00  0.00    -0.390 OA
ATOM     22  H   UNL     1      -5.454  14.931  28.448  0.00  0.00    +0.210 HD
ENDBRANCH   9  21
ENDBRANCH   4   5
BRANCH   4  23
ATOM     23  O   UNL     1      -2.218  10.104  28.483  0.00  0.00    -0.387 OA
ATOM     24  H   UNL     1      -1.370   9.696  28.674  0.00  0.00    +0.210 HD
ENDBRANCH   4  23
ENDBRANCH   1   4
BRANCH   1  25
ATOM     25  C   UNL     1      -3.949   8.053  28.582  0.00  0.00    +0.141 C 
BRANCH  25  28
ATOM     26  C   UNL     1      -3.152   8.247  26.251  0.00  0.00    +0.401 C 
ATOM     27  O   UNL     1      -1.999   7.902  26.518  0.00  0.00    -0.226 OA
ATOM     28  N   UNL     1      -4.126   8.352  27.156  0.00  0.00    -0.279 N 
ATOM     29  H   UNL     1      -5.038   8.652  26.842  0.00  0.00    +0.152 HD
BRANCH  26  30
ATOM     30  O   UNL     1      -3.487   8.565  24.898  0.00  0.00    -0.444 OA
BRANCH  30  31
ATOM     31  C   UNL     1      -4.896   8.415  24.707  0.00  0.00    +0.292 C 
BRANCH  31  33
ATOM     32  N   UNL     1      -4.399   8.146  22.291  0.00  0.00    -0.131 NA
ATOM     33  C   UNL     1      -5.241   8.570  23.283  0.00  0.00    +0.120 A 
ATOM     34  C   UNL     1      -6.370   9.113  22.714  0.00  0.00    +0.137 A 
ATOM     35  N   UNL     1      -6.148   9.018  21.373  0.00  0.00    -0.248 N 
ATOM     36  N   UNL     1      -4.971   8.409  21.123  0.00  0.00    -0.065 NA
BRANCH  35  37
ATOM     37  C   UNL     1      -7.008   9.400  20.263  0.00  0.00    +0.113 C 
ATOM     38  C   UNL     1      -8.256  10.195  20.672  0.00  0.00    +0.033 C 
BRANCH  37  39
ATOM     39  C   UNL     1      -6.237  10.095  19.126  0.00  0.00    +0.106 C 
BRANCH  39  40
ATOM     40  C   UNL     1      -6.198  11.607  19.240  0.00  0.00    +0.165 C 
ATOM     41  O   UNL     1      -6.833  12.340  18.484  0.00  0.00    -0.292 OA
BRANCH  40  42
ATOM     42  C   UNL     1      -5.327  12.229  20.283  0.00  0.00    +0.017 A 
ATOM     43  C   UNL     1      -3.962  11.938  20.392  0.00  0.00    +0.011 A 
ATOM     44  C   UNL     1      -3.185  12.581  21.360  0.00  0.00    +0.001 A 
ATOM     45  C   UNL     1      -3.766  13.509  22.223  0.00  0.00    +0.000 A 
ATOM     46  C   UNL     1      -5.124  13.796  22.127  0.00  0.00    +0.001 A 
ATOM     47  C   UNL     1      -5.903  13.159  21.160  0.00  0.00    +0.011 A 
ENDBRANCH  40  42
ENDBRANCH  39  40
ENDBRANCH  37  39
ENDBRANCH  35  37
ENDBRANCH  31  33
ENDBRANCH  30  31
ENDBRANCH  26  30
ENDBRANCH  25  28
ENDBRANCH   1  25
TORSDOF 17
