REMARK VINA RESULT:    -4.664      2.800     11.475
REMARK INTER + INTRA:         -13.110
REMARK INTER:                  -9.382
REMARK INTRA:                  -3.728
REMARK UNBOUND:                -4.083
REMARK  Name = lig_assembled_83.pdb
REMARK  20 active torsions:
REMARK  status: ('A' for Active; 'I' for Inactive)
REMARK    1  A    between atoms: _2  and  _12
REMARK    2  A    between atoms: _3  and  _14
REMARK    3  A    between atoms: _7  and  _24
REMARK    4  A    between atoms: _9  and  _10
REMARK    5  A    between atoms: _9  and  _24
REMARK    6  A    between atoms: _12  and  _13
REMARK    7  A    between atoms: _13  and  _14
REMARK    8  A    between atoms: _13  and  _18
REMARK    9  A    between atoms: _20  and  _40
REMARK   10  A    between atoms: _22  and  _28
REMARK   11  A    between atoms: _23  and  _27
REMARK   12  A    between atoms: _27  and  _28
REMARK   13  A    between atoms: _30  and  _31
REMARK   14  A    between atoms: _32  and  _33
REMARK   15  A    between atoms: _34  and  _36
REMARK   16  A    between atoms: _36  and  _37
REMARK   17  A    between atoms: _36  and  _38
REMARK   18  A    between atoms: _38  and  _39
REMARK   19  A    between atoms: _38  and  _40
REMARK   20  A    between atoms: _41  and  _43
REMARK                            x       y       z     vdW  Elec       q    Type
REMARK                         _______ _______ _______ _____ _____    ______ ____
ROOT
ATOM      1  C   UNL     1      -1.866   7.237  14.445  0.00  0.00    +0.141 C 
ENDROOT
BRANCH   1   4
ATOM      2  C   UNL     1      -3.230   6.542  16.384  0.00  0.00    +0.401 C 
ATOM      3  O   UNL     1      -2.268   6.115  17.027  0.00  0.00    -0.226 OA
ATOM      4  N   UNL     1      -3.134   7.077  15.167  0.00  0.00    -0.279 N 
ATOM      5  H   UNL     1      -3.982   7.391  14.715  0.00  0.00    +0.152 HD
BRANCH   2   6
ATOM      6  O   UNL     1      -4.538   6.466  16.958  0.00  0.00    -0.444 OA
BRANCH   6   7
ATOM      7  C   UNL     1      -5.341   7.540  16.460  0.00  0.00    +0.292 C 
BRANCH   7   9
ATOM      8  N   UNL     1      -6.903   8.593  18.078  0.00  0.00    -0.131 NA
ATOM      9  C   UNL     1      -5.646   8.499  17.538  0.00  0.00    +0.120 A 
ATOM     10  C   UNL     1      -4.822   9.406  18.163  0.00  0.00    +0.137 A 
ATOM     11  N   UNL     1      -5.630  10.006  19.079  0.00  0.00    -0.249 N 
ATOM     12  N   UNL     1      -6.883   9.527  19.021  0.00  0.00    -0.065 NA
BRANCH  11  13
ATOM     13  C   UNL     1      -5.287  11.062  20.008  0.00  0.00    +0.178 C 
BRANCH  13  14
ATOM     14  C   UNL     1      -5.082  10.528  21.428  0.00  0.00    +0.156 C 
BRANCH  14  15
ATOM     15  O   UNL     1      -5.515   9.166  21.504  0.00  0.00    -0.388 OA
ATOM     16  H   UNL     1      -6.477   9.114  21.336  0.00  0.00    +0.210 HD
ENDBRANCH  14  15
BRANCH  14  17
ATOM     17  C   UNL     1      -3.605  10.642  21.838  0.00  0.00    +0.162 C 
BRANCH  17  18
ATOM     18  N   UNL     1      -3.424  11.384  23.076  0.00  0.00    -0.269 N 
ATOM     19  C   UNL     1      -3.260  12.750  23.123  0.00  0.00    +0.113 A 
ATOM     20  C   UNL     1      -3.154  13.062  24.459  0.00  0.00    +0.137 A 
ATOM     21  N   UNL     1      -3.219  11.933  25.228  0.00  0.00    -0.172 NA
ATOM     22  C   UNL     1      -3.387  10.939  24.376  0.00  0.00    +0.450 A 
ATOM     23  N   UNL     1      -3.517   9.564  24.802  0.00  0.00    +0.120 N 
ATOM     24  O   UNL     1      -3.674   8.701  23.923  0.00  0.00    +0.045 OA
ATOM     25  O   UNL     1      -3.451   9.334  26.015  0.00  0.00    -0.573 OA
ENDBRANCH  17  18
ENDBRANCH  14  17
ENDBRANCH  13  14
ENDBRANCH  11  13
ENDBRANCH   7   9
ENDBRANCH   6   7
ENDBRANCH   2   6
ENDBRANCH   1   4
BRANCH   1  26
ATOM     26  C   UNL     1      -1.858   8.493  13.580  0.00  0.00    +0.163 C 
BRANCH  26  27
ATOM     27  O   UNL     1      -2.102   8.146  12.207  0.00  0.00    -0.388 OA
ATOM     28  H   UNL     1      -1.308   8.301  11.691  0.00  0.00    +0.210 HD
ENDBRANCH  26  27
BRANCH  26  29
ATOM     29  C   UNL     1      -2.920   9.479  14.096  0.00  0.00    +0.175 C 
BRANCH  29  30
ATOM     30  C   UNL     1      -3.212  10.596  13.083  0.00  0.00    +0.176 C 
ATOM     31  O   UNL     1      -1.943  11.039  12.527  0.00  0.00    -0.332 OA
ATOM     32  C   UNL     1      -2.034  12.036  11.457  0.00  0.00    +0.277 C 
ATOM     33  C   UNL     1      -2.855  13.262  11.927  0.00  0.00    +0.110 C 
ATOM     34  C   UNL     1      -4.200  12.839  12.555  0.00  0.00    +0.143 C 
ATOM     35  C   UNL     1      -3.989  11.797  13.654  0.00  0.00    +0.133 C 
BRANCH  35  36
ATOM     36  N   UNL     1      -5.282  11.338  14.184  0.00  0.00    -0.308 N 
ATOM     37  H   UNL     1      -5.869  10.779  13.580  0.00  0.00    +0.149 HD
ATOM     38  C   UNL     1      -5.732  11.611  15.412  0.00  0.00    +0.210 C 
ATOM     39  C   UNL     1      -4.827  12.485  16.299  0.00  0.00    +0.109 C 
ATOM     40  O   UNL     1      -6.814  11.200  15.834  0.00  0.00    -0.276 OA
ENDBRANCH  35  36
BRANCH  32  41
ATOM     41  C   UNL     1      -2.688  11.430  10.198  0.00  0.00    +0.414 C 
ATOM     42  O   UNL     1      -2.717  10.210  10.041  0.00  0.00    -0.240 OA
ATOM     43  O   UNL     1      -3.185  12.160   9.340  0.00  0.00    -0.240 OA
ENDBRANCH  32  41
BRANCH  32  44
ATOM     44  O   UNL     1      -0.689  12.481  11.143  0.00  0.00    -0.343 OA
ATOM     45  C   UNL     1      -0.429  13.882  11.410  0.00  0.00    +0.198 C 
ENDBRANCH  32  44
BRANCH  34  46
ATOM     46  O   UNL     1      -4.854  13.981  13.109  0.00  0.00    -0.390 OA
ATOM     47  H   UNL     1      -5.308  13.730  13.917  0.00  0.00    +0.210 HD
ENDBRANCH  34  46
ENDBRANCH  29  30
BRANCH  29  48
ATOM     48  O   UNL     1      -2.501  10.046  15.353  0.00  0.00    -0.387 OA
ATOM     49  H   UNL     1      -1.567  10.262  15.312  0.00  0.00    +0.210 HD
ENDBRANCH  29  48
ENDBRANCH  26  29
ENDBRANCH   1  26
TORSDOF 18
