REMARK VINA RESULT:    -5.435      2.621      7.729
REMARK INTER + INTRA:         -11.418
REMARK INTER:                  -8.906
REMARK INTRA:                  -2.512
REMARK UNBOUND:                -2.010
REMARK  Name = lig_assembled_49.pdb
REMARK  16 active torsions:
REMARK  status: ('A' for Active; 'I' for Inactive)
REMARK    1  A    between atoms: _2  and  _9
REMARK    2  A    between atoms: _4  and  _17
REMARK    3  A    between atoms: _6  and  _7
REMARK    4  A    between atoms: _6  and  _17
REMARK    5  A    between atoms: _13  and  _33
REMARK    6  A    between atoms: _15  and  _21
REMARK    7  A    between atoms: _16  and  _20
REMARK    8  A    between atoms: _20  and  _21
REMARK    9  A    between atoms: _23  and  _24
REMARK   10  A    between atoms: _25  and  _26
REMARK   11  A    between atoms: _27  and  _29
REMARK   12  A    between atoms: _29  and  _30
REMARK   13  A    between atoms: _29  and  _31
REMARK   14  A    between atoms: _31  and  _32
REMARK   15  A    between atoms: _31  and  _33
REMARK   16  A    between atoms: _34  and  _36
REMARK                            x       y       z     vdW  Elec       q    Type
REMARK                         _______ _______ _______ _____ _____    ______ ____
ROOT
ATOM      1  C   UNL     1      -3.301   8.955  26.335  0.00  0.00    +0.175 C 
ENDROOT
BRANCH   1   2
ATOM      2  C   UNL     1      -4.078   9.804  25.318  0.00  0.00    +0.176 C 
ATOM      3  O   UNL     1      -3.188  10.093  24.204  0.00  0.00    -0.332 OA
ATOM      4  C   UNL     1      -3.794  10.811  23.079  0.00  0.00    +0.277 C 
ATOM      5  C   UNL     1      -4.461  12.120  23.569  0.00  0.00    +0.110 C 
ATOM      6  C   UNL     1      -5.392  11.868  24.773  0.00  0.00    +0.143 C 
ATOM      7  C   UNL     1      -4.661  11.112  25.883  0.00  0.00    +0.133 C 
BRANCH   7   8
ATOM      8  N   UNL     1      -5.583  10.803  26.988  0.00  0.00    -0.308 N 
ATOM      9  H   UNL     1      -6.292  10.102  26.828  0.00  0.00    +0.149 HD
ATOM     10  C   UNL     1      -5.542  11.387  28.188  0.00  0.00    +0.210 C 
ATOM     11  C   UNL     1      -4.465  12.470  28.392  0.00  0.00    +0.109 C 
ATOM     12  O   UNL     1      -6.317  11.097  29.100  0.00  0.00    -0.276 OA
ENDBRANCH   7   8
BRANCH   4  13
ATOM     13  C   UNL     1      -4.844   9.931  22.370  0.00  0.00    +0.414 C 
ATOM     14  O   UNL     1      -4.582   8.764  22.082  0.00  0.00    -0.240 OA
ATOM     15  O   UNL     1      -5.952  10.388  22.085  0.00  0.00    -0.240 OA
ENDBRANCH   4  13
BRANCH   6  16
ATOM     16  O   UNL     1      -5.865  13.115  25.285  0.00  0.00    -0.390 OA
ATOM     17  H   UNL     1      -5.453  13.290  26.134  0.00  0.00    +0.210 HD
ENDBRANCH   6  16
BRANCH   4  18
ATOM     18  O   UNL     1      -2.737  11.157  22.147  0.00  0.00    -0.343 OA
ATOM     19  C   UNL     1      -3.049  12.249  21.245  0.00  0.00    +0.198 C 
ENDBRANCH   4  18
ENDBRANCH   1   2
BRANCH   1  20
ATOM     20  O   UNL     1      -4.209   8.373  27.292  0.00  0.00    -0.387 OA
ATOM     21  H   UNL     1      -3.787   7.625  27.721  0.00  0.00    +0.210 HD
ENDBRANCH   1  20
BRANCH   1  22
ATOM     22  C   UNL     1      -2.216   9.768  27.060  0.00  0.00    +0.163 C 
BRANCH  22  23
ATOM     23  O   UNL     1      -1.013   9.832  26.277  0.00  0.00    -0.388 OA
ATOM     24  H   UNL     1      -0.351   9.249  26.657  0.00  0.00    +0.210 HD
ENDBRANCH  22  23
BRANCH  22  25
ATOM     25  C   UNL     1      -1.923   9.133  28.415  0.00  0.00    +0.141 C 
BRANCH  25  28
ATOM     26  C   UNL     1      -3.107   9.233  30.582  0.00  0.00    +0.401 C 
ATOM     27  O   UNL     1      -3.071   8.014  30.765  0.00  0.00    -0.226 OA
ATOM     28  N   UNL     1      -2.600   9.841  29.509  0.00  0.00    -0.279 N 
ATOM     29  H   UNL     1      -2.687  10.846  29.445  0.00  0.00    +0.152 HD
BRANCH  26  30
ATOM     30  O   UNL     1      -3.728  10.064  31.566  0.00  0.00    -0.444 OA
BRANCH  30  31
ATOM     31  C   UNL     1      -2.722  10.745  32.321  0.00  0.00    +0.292 C 
BRANCH  31  33
ATOM     32  N   UNL     1      -1.796  13.036  32.219  0.00  0.00    -0.131 NA
ATOM     33  C   UNL     1      -2.884  12.205  32.193  0.00  0.00    +0.120 A 
ATOM     34  C   UNL     1      -4.025  12.962  32.048  0.00  0.00    +0.137 A 
ATOM     35  N   UNL     1      -3.566  14.245  31.998  0.00  0.00    -0.248 N 
ATOM     36  N   UNL     1      -2.226  14.284  32.098  0.00  0.00    -0.065 NA
BRANCH  35  37
ATOM     37  C   UNL     1      -4.340  15.456  31.879  0.00  0.00    +0.109 C 
ATOM     38  C   UNL     1      -3.620  16.705  32.391  0.00  0.00    +0.027 C 
ATOM     39  C   UNL     1      -4.418  17.837  31.767  0.00  0.00    +0.002 C 
ATOM     40  C   UNL     1      -4.738  17.339  30.363  0.00  0.00    +0.002 C 
ATOM     41  C   UNL     1      -4.754  15.810  30.444  0.00  0.00    +0.027 C 
ENDBRANCH  35  37
ENDBRANCH  31  33
ENDBRANCH  30  31
ENDBRANCH  26  30
ENDBRANCH  25  28
ENDBRANCH  22  25
ENDBRANCH   1  22
TORSDOF 14
