REMARK VINA RESULT:    -4.651      2.441      5.864
REMARK INTER + INTRA:         -11.028
REMARK INTER:                  -8.219
REMARK INTRA:                  -2.809
REMARK UNBOUND:                -2.299
REMARK  Name = lig_assembled_32.pdb
REMARK  19 active torsions:
REMARK  status: ('A' for Active; 'I' for Inactive)
REMARK    1  A    between atoms: _2  and  _9
REMARK    2  A    between atoms: _4  and  _17
REMARK    3  A    between atoms: _5  and  _10
REMARK    4  A    between atoms: _5  and  _11
REMARK    5  A    between atoms: _6  and  _7
REMARK    6  A    between atoms: _6  and  _17
REMARK    7  A    between atoms: _9  and  _10
REMARK    8  A    between atoms: _13  and  _33
REMARK    9  A    between atoms: _15  and  _21
REMARK   10  A    between atoms: _16  and  _20
REMARK   11  A    between atoms: _20  and  _21
REMARK   12  A    between atoms: _23  and  _24
REMARK   13  A    between atoms: _25  and  _26
REMARK   14  A    between atoms: _27  and  _29
REMARK   15  A    between atoms: _29  and  _30
REMARK   16  A    between atoms: _29  and  _31
REMARK   17  A    between atoms: _31  and  _32
REMARK   18  A    between atoms: _31  and  _33
REMARK   19  A    between atoms: _34  and  _36
REMARK                            x       y       z     vdW  Elec       q    Type
REMARK                         _______ _______ _______ _____ _____    ______ ____
ROOT
ATOM      1  C   UNL     1      -2.729  11.185  26.052  0.00  0.00    +0.163 C 
ENDROOT
BRANCH   1   2
ATOM      2  O   UNL     1      -2.007  12.210  25.350  0.00  0.00    -0.388 OA
ATOM      3  H   UNL     1      -2.504  13.032  25.383  0.00  0.00    +0.210 HD
ENDBRANCH   1   2
BRANCH   1   4
ATOM      4  C   UNL     1      -3.909  10.668  25.211  0.00  0.00    +0.175 C 
BRANCH   4   5
ATOM      5  C   UNL     1      -4.902  11.785  24.860  0.00  0.00    +0.176 C 
ATOM      6  O   UNL     1      -4.285  12.632  23.852  0.00  0.00    -0.332 OA
ATOM      7  C   UNL     1      -5.134  13.700  23.314  0.00  0.00    +0.277 C 
ATOM      8  C   UNL     1      -5.694  14.575  24.462  0.00  0.00    +0.110 C 
ATOM      9  C   UNL     1      -6.332  13.717  25.574  0.00  0.00    +0.143 C 
ATOM     10  C   UNL     1      -5.364  12.636  26.057  0.00  0.00    +0.133 C 
BRANCH  10  11
ATOM     11  N   UNL     1      -6.013  11.771  27.054  0.00  0.00    -0.308 N 
ATOM     12  H   UNL     1      -6.764  11.172  26.741  0.00  0.00    +0.149 HD
ATOM     13  C   UNL     1      -5.675  11.725  28.346  0.00  0.00    +0.210 C 
ATOM     14  C   UNL     1      -4.545  12.669  28.797  0.00  0.00    +0.109 C 
ATOM     15  O   UNL     1      -6.227  10.979  29.155  0.00  0.00    -0.276 OA
ENDBRANCH  10  11
BRANCH   7  16
ATOM     16  C   UNL     1      -6.303  13.110  22.498  0.00  0.00    +0.414 C 
ATOM     17  O   UNL     1      -7.422  13.617  22.564  0.00  0.00    -0.240 OA
ATOM     18  O   UNL     1      -6.127  12.129  21.775  0.00  0.00    -0.240 OA
ENDBRANCH   7  16
BRANCH   7  19
ATOM     19  O   UNL     1      -4.314  14.537  22.458  0.00  0.00    -0.343 OA
ATOM     20  C   UNL     1      -4.749  15.916  22.353  0.00  0.00    +0.198 C 
ENDBRANCH   7  19
BRANCH   9  21
ATOM     21  O   UNL     1      -6.697  14.549  26.676  0.00  0.00    -0.390 OA
ATOM     22  H   UNL     1      -6.500  14.096  27.499  0.00  0.00    +0.210 HD
ENDBRANCH   9  21
ENDBRANCH   4   5
BRANCH   4  23
ATOM     23  O   UNL     1      -4.585   9.602  25.906  0.00  0.00    -0.387 OA
ATOM     24  H   UNL     1      -5.024   9.032  25.270  0.00  0.00    +0.210 HD
ENDBRANCH   4  23
ENDBRANCH   1   4
BRANCH   1  25
ATOM     25  C   UNL     1      -1.796  10.027  26.388  0.00  0.00    +0.141 C 
BRANCH  25  28
ATOM     26  C   UNL     1      -1.907   8.340  28.190  0.00  0.00    +0.401 C 
ATOM     27  O   UNL     1      -1.803   7.378  27.425  0.00  0.00    -0.226 OA
ATOM     28  N   UNL     1      -1.920   9.612  27.791  0.00  0.00    -0.279 N 
ATOM     29  H   UNL     1      -2.020  10.332  28.493  0.00  0.00    +0.152 HD
BRANCH  26  30
ATOM     30  O   UNL     1      -2.029   8.101  29.595  0.00  0.00    -0.444 OA
BRANCH  30  31
ATOM     31  C   UNL     1      -3.400   8.216  29.982  0.00  0.00    +0.292 C 
BRANCH  31  33
ATOM     32  N   UNL     1      -4.706   9.420  31.707  0.00  0.00    -0.131 NA
ATOM     33  C   UNL     1      -3.570   9.320  30.946  0.00  0.00    +0.120 A 
ATOM     34  C   UNL     1      -2.730  10.367  31.252  0.00  0.00    +0.137 A 
ATOM     35  N   UNL     1      -3.416  11.071  32.193  0.00  0.00    -0.251 N 
ATOM     36  N   UNL     1      -4.601  10.501  32.467  0.00  0.00    -0.065 NA
BRANCH  35  37
ATOM     37  C   UNL     1      -3.015  12.280  32.877  0.00  0.00    +0.156 C 
BRANCH  37  38
ATOM     38  C   UNL     1      -3.754  13.504  32.353  0.00  0.00    +0.143 C 
BRANCH  38  39
ATOM     39  C   UNL     1      -2.807  14.402  31.609  0.00  0.00    +0.306 C 
ATOM     40  O   UNL     1      -3.115  15.464  31.092  0.00  0.00    -0.251 OA
BRANCH  39  41
ATOM     41  O   UNL     1      -1.552  13.904  31.551  0.00  0.00    -0.481 OA
ATOM     42  H   UNL     1      -1.257  13.662  30.652  0.00  0.00    +0.295 HD
ENDBRANCH  39  41
ENDBRANCH  38  39
ENDBRANCH  37  38
ENDBRANCH  35  37
ENDBRANCH  31  33
ENDBRANCH  30  31
ENDBRANCH  26  30
ENDBRANCH  25  28
ENDBRANCH   1  25
TORSDOF 17
