REMARK VINA RESULT:    -4.847      4.805      7.834
REMARK INTER + INTRA:         -11.120
REMARK INTER:                  -7.720
REMARK INTRA:                  -3.399
REMARK UNBOUND:                -2.447
REMARK  Name = lig_assembled_85.pdb
REMARK  19 active torsions:
REMARK  status: ('A' for Active; 'I' for Inactive)
REMARK    1  A    between atoms: _2  and  _10
REMARK    2  A    between atoms: _3  and  _6
REMARK    3  A    between atoms: _3  and  _17
REMARK    4  A    between atoms: _5  and  _23
REMARK    5  A    between atoms: _7  and  _8
REMARK    6  A    between atoms: _7  and  _23
REMARK    7  A    between atoms: _15  and  _16
REMARK    8  A    between atoms: _19  and  _39
REMARK    9  A    between atoms: _21  and  _27
REMARK   10  A    between atoms: _22  and  _26
REMARK   11  A    between atoms: _26  and  _27
REMARK   12  A    between atoms: _29  and  _30
REMARK   13  A    between atoms: _31  and  _32
REMARK   14  A    between atoms: _33  and  _35
REMARK   15  A    between atoms: _35  and  _36
REMARK   16  A    between atoms: _35  and  _37
REMARK   17  A    between atoms: _37  and  _38
REMARK   18  A    between atoms: _37  and  _39
REMARK   19  A    between atoms: _40  and  _42
REMARK                            x       y       z     vdW  Elec       q    Type
REMARK                         _______ _______ _______ _____ _____    ______ ____
ROOT
ATOM      1  C   UNL     1      -3.677   7.869  28.793  0.00  0.00    +0.141 C 
ENDROOT
BRANCH   1   4
ATOM      2  C   UNL     1      -3.204   7.780  26.369  0.00  0.00    +0.401 C 
ATOM      3  O   UNL     1      -2.000   8.011  26.500  0.00  0.00    -0.226 OA
ATOM      4  N   UNL     1      -4.063   7.702  27.386  0.00  0.00    -0.279 N 
ATOM      5  H   UNL     1      -5.034   7.517  27.177  0.00  0.00    +0.152 HD
BRANCH   2   6
ATOM      6  O   UNL     1      -3.735   7.584  25.056  0.00  0.00    -0.444 OA
BRANCH   6   7
ATOM      7  C   UNL     1      -5.133   7.886  25.055  0.00  0.00    +0.292 C 
BRANCH   7   9
ATOM      8  N   UNL     1      -6.633   9.380  23.786  0.00  0.00    -0.131 NA
ATOM      9  C   UNL     1      -5.492   8.632  23.837  0.00  0.00    +0.121 A 
ATOM     10  C   UNL     1      -4.806   8.766  22.651  0.00  0.00    +0.143 A 
ATOM     11  N   UNL     1      -5.574   9.621  21.900  0.00  0.00    -0.219 N 
ATOM     12  N   UNL     1      -6.661  10.000  22.615  0.00  0.00    -0.060 NA
BRANCH  11  13
ATOM     13  C   UNL     1      -5.323  10.172  20.624  0.00  0.00    +0.080 A 
ATOM     14  C   UNL     1      -4.779  11.448  20.410  0.00  0.00    +0.062 A 
ATOM     15  C   UNL     1      -4.817  11.965  19.094  0.00  0.00    +0.016 A 
ATOM     16  C   UNL     1      -5.351  11.235  18.027  0.00  0.00    +0.021 A 
ATOM     17  C   UNL     1      -5.817   9.948  18.247  0.00  0.00    +0.043 A 
ATOM     18 CL   UNL     1      -6.510   9.049  16.955  0.00  0.00    -0.083 Cl
ATOM     19  C   UNL     1      -5.781   9.405  19.528  0.00  0.00    +0.048 A 
BRANCH  14  20
ATOM     20  C   UNL     1      -4.217  12.401  21.412  0.00  0.00    +0.248 C 
ATOM     21  O   UNL     1      -3.000  12.309  21.595  0.00  0.00    -0.270 OA
ATOM     22  N   UNL     1      -4.992  13.299  22.155  0.00  0.00    -0.304 N 
ATOM     23  C   UNL     1      -6.400  13.624  21.976  0.00  0.00    +0.132 C 
ATOM     24  C   UNL     1      -4.272  14.149  23.098  0.00  0.00    +0.132 C 
ENDBRANCH  14  20
ENDBRANCH  11  13
ENDBRANCH   7   9
ENDBRANCH   6   7
ENDBRANCH   2   6
ENDBRANCH   1   4
BRANCH   1  25
ATOM     25  C   UNL     1      -4.183   9.188  29.368  0.00  0.00    +0.163 C 
BRANCH  25  26
ATOM     26  O   UNL     1      -4.866   8.952  30.610  0.00  0.00    -0.388 OA
ATOM     27  H   UNL     1      -5.757   9.306  30.559  0.00  0.00    +0.210 HD
ENDBRANCH  25  26
BRANCH  25  28
ATOM     28  C   UNL     1      -3.000  10.151  29.565  0.00  0.00    +0.175 C 
BRANCH  28  29
ATOM     29  C   UNL     1      -3.464  11.581  29.876  0.00  0.00    +0.176 C 
ATOM     30  O   UNL     1      -3.893  11.620  31.266  0.00  0.00    -0.332 OA
ATOM     31  C   UNL     1      -4.274  12.941  31.775  0.00  0.00    +0.277 C 
ATOM     32  C   UNL     1      -5.362  13.575  30.874  0.00  0.00    +0.110 C 
ATOM     33  C   UNL     1      -4.965  13.528  29.383  0.00  0.00    +0.143 C 
ATOM     34  C   UNL     1      -4.585  12.108  28.961  0.00  0.00    +0.133 C 
BRANCH  34  35
ATOM     35  N   UNL     1      -4.126  12.092  27.563  0.00  0.00    -0.308 N 
ATOM     36  H   UNL     1      -3.238  12.525  27.353  0.00  0.00    +0.149 HD
ATOM     37  C   UNL     1      -4.807  11.541  26.554  0.00  0.00    +0.210 C 
ATOM     38  C   UNL     1      -6.168  10.911  26.903  0.00  0.00    +0.109 C 
ATOM     39  O   UNL     1      -4.391  11.529  25.395  0.00  0.00    -0.276 OA
ENDBRANCH  34  35
BRANCH  31  40
ATOM     40  C   UNL     1      -3.048  13.876  31.839  0.00  0.00    +0.414 C 
ATOM     41  O   UNL     1      -2.000  13.490  32.355  0.00  0.00    -0.240 OA
ATOM     42  O   UNL     1      -3.108  15.016  31.376  0.00  0.00    -0.240 OA
ENDBRANCH  31  40
BRANCH  33  43
ATOM     43  O   UNL     1      -6.056  13.981  28.580  0.00  0.00    -0.390 OA
ATOM     44  H   UNL     1      -6.560  13.226  28.268  0.00  0.00    +0.210 HD
ENDBRANCH  33  43
BRANCH  31  45
ATOM     45  O   UNL     1      -4.826  12.767  33.105  0.00  0.00    -0.343 OA
ATOM     46  C   UNL     1      -4.804  11.406  33.604  0.00  0.00    +0.198 C 
ENDBRANCH  31  45
ENDBRANCH  28  29
BRANCH  28  47
ATOM     47  O   UNL     1      -2.156  10.146  28.397  0.00  0.00    -0.387 OA
ATOM     48  H   UNL     1      -1.242  10.279  28.661  0.00  0.00    +0.210 HD
ENDBRANCH  28  47
ENDBRANCH  25  28
ENDBRANCH   1  25
TORSDOF 15
