REMARK VINA RESULT:    -5.051      3.238      7.294
REMARK INTER + INTRA:         -11.341
REMARK INTER:                  -7.575
REMARK INTRA:                  -3.766
REMARK UNBOUND:                -2.303
REMARK  Name = lig_assembled_4.pdb
REMARK  19 active torsions:
REMARK  status: ('A' for Active; 'I' for Inactive)
REMARK    1  A    between atoms: _2  and  _9
REMARK    2  A    between atoms: _4  and  _21
REMARK    3  A    between atoms: _6  and  _7
REMARK    4  A    between atoms: _6  and  _21
REMARK    5  A    between atoms: _10  and  _11
REMARK    6  A    between atoms: _11  and  _12
REMARK    7  A    between atoms: _11  and  _13
REMARK    8  A    between atoms: _17  and  _37
REMARK    9  A    between atoms: _19  and  _25
REMARK   10  A    between atoms: _20  and  _24
REMARK   11  A    between atoms: _24  and  _25
REMARK   12  A    between atoms: _27  and  _28
REMARK   13  A    between atoms: _29  and  _30
REMARK   14  A    between atoms: _31  and  _33
REMARK   15  A    between atoms: _33  and  _34
REMARK   16  A    between atoms: _33  and  _35
REMARK   17  A    between atoms: _35  and  _36
REMARK   18  A    between atoms: _35  and  _37
REMARK   19  A    between atoms: _38  and  _40
REMARK                            x       y       z     vdW  Elec       q    Type
REMARK                         _______ _______ _______ _____ _____    ______ ____
ROOT
ATOM      1  C   UNL     1      -6.761  10.629  28.376  0.00  0.00    +0.163 C 
ENDROOT
BRANCH   1   2
ATOM      2  O   UNL     1      -7.454  11.001  29.579  0.00  0.00    -0.388 OA
ATOM      3  H   UNL     1      -6.965  10.683  30.342  0.00  0.00    +0.210 HD
ENDBRANCH   1   2
BRANCH   1   4
ATOM      4  C   UNL     1      -7.319   9.315  27.838  0.00  0.00    +0.141 C 
BRANCH   4   7
ATOM      5  C   UNL     1      -6.079   7.992  26.159  0.00  0.00    +0.401 C 
ATOM      6  O   UNL     1      -5.678   7.159  26.974  0.00  0.00    -0.226 OA
ATOM      7  N   UNL     1      -6.846   9.037  26.476  0.00  0.00    -0.279 N 
ATOM      8  H   UNL     1      -7.116   9.672  25.739  0.00  0.00    +0.152 HD
BRANCH   5   9
ATOM      9  O   UNL     1      -5.709   7.854  24.785  0.00  0.00    -0.444 OA
BRANCH   9  10
ATOM     10  C   UNL     1      -4.295   8.022  24.652  0.00  0.00    +0.292 C 
BRANCH  10  12
ATOM     11  N   UNL     1      -2.905   9.998  25.157  0.00  0.00    -0.131 NA
ATOM     12  C   UNL     1      -3.953   9.447  24.488  0.00  0.00    +0.121 A 
ATOM     13  C   UNL     1      -4.576  10.423  23.742  0.00  0.00    +0.143 A 
ATOM     14  N   UNL     1      -3.940  11.598  24.096  0.00  0.00    -0.219 N 
ATOM     15  N   UNL     1      -2.890  11.297  24.891  0.00  0.00    -0.060 NA
BRANCH  14  16
ATOM     16  C   UNL     1      -4.308  12.928  23.731  0.00  0.00    +0.070 A 
ATOM     17  C   UNL     1      -5.344  13.656  24.376  0.00  0.00    -0.019 A 
ATOM     18  C   UNL     1      -5.627  14.954  23.893  0.00  0.00    +0.006 A 
ATOM     19  C   UNL     1      -4.936  15.512  22.817  0.00  0.00    +0.000 A 
ATOM     20  C   UNL     1      -3.922  14.796  22.200  0.00  0.00    +0.002 A 
ATOM     21  C   UNL     1      -3.610  13.514  22.651  0.00  0.00    +0.028 A 
BRANCH  17  22
ATOM     22  C   UNL     1      -6.174  13.122  25.545  0.00  0.00    +0.015 C 
ATOM     23  C   UNL     1      -7.554  12.564  25.163  0.00  0.00    +0.012 C 
ATOM     24  C   UNL     1      -6.331  14.207  26.613  0.00  0.00    +0.012 C 
ENDBRANCH  17  22
ENDBRANCH  14  16
ENDBRANCH  10  12
ENDBRANCH   9  10
ENDBRANCH   5   9
ENDBRANCH   4   7
ENDBRANCH   1   4
BRANCH   1  25
ATOM     25  C   UNL     1      -5.252  10.479  28.634  0.00  0.00    +0.175 C 
BRANCH  25  26
ATOM     26  C   UNL     1      -4.812  11.196  29.918  0.00  0.00    +0.176 C 
ATOM     27  O   UNL     1      -4.858  12.628  29.670  0.00  0.00    -0.332 OA
ATOM     28  C   UNL     1      -4.569  13.483  30.825  0.00  0.00    +0.277 C 
ATOM     29  C   UNL     1      -3.203  13.104  31.449  0.00  0.00    +0.110 C 
ATOM     30  C   UNL     1      -3.094  11.586  31.703  0.00  0.00    +0.143 C 
ATOM     31  C   UNL     1      -3.418  10.793  30.436  0.00  0.00    +0.133 C 
BRANCH  31  32
ATOM     32  N   UNL     1      -3.396   9.348  30.712  0.00  0.00    -0.308 N 
ATOM     33  H   UNL     1      -3.910   9.014  31.515  0.00  0.00    +0.149 HD
ATOM     34  C   UNL     1      -2.740   8.450  29.972  0.00  0.00    +0.210 C 
ATOM     35  C   UNL     1      -1.944   8.996  28.771  0.00  0.00    +0.109 C 
ATOM     36  O   UNL     1      -2.751   7.244  30.219  0.00  0.00    -0.276 OA
ENDBRANCH  31  32
BRANCH  28  37
ATOM     37  C   UNL     1      -5.677  13.353  31.892  0.00  0.00    +0.414 C 
ATOM     38  O   UNL     1      -6.860  13.328  31.557  0.00  0.00    -0.240 OA
ATOM     39  O   UNL     1      -5.387  13.275  33.086  0.00  0.00    -0.240 OA
ENDBRANCH  28  37
BRANCH  30  40
ATOM     40  O   UNL     1      -1.771  11.263  32.134  0.00  0.00    -0.390 OA
ATOM     41  H   UNL     1      -1.170  11.966  31.877  0.00  0.00    +0.210 HD
ENDBRANCH  30  40
BRANCH  28  42
ATOM     42  O   UNL     1      -4.495  14.855  30.362  0.00  0.00    -0.343 OA
ATOM     43  C   UNL     1      -3.975  15.801  31.330  0.00  0.00    +0.198 C 
ENDBRANCH  28  42
ENDBRANCH  25  26
BRANCH  25  44
ATOM     44  O   UNL     1      -4.504  10.976  27.506  0.00  0.00    -0.387 OA
ATOM     45  H   UNL     1      -4.198  10.237  26.975  0.00  0.00    +0.210 HD
ENDBRANCH  25  44
ENDBRANCH   1  25
TORSDOF 15
