REMARK VINA RESULT:    -4.913      6.662     12.615
REMARK INTER + INTRA:         -11.370
REMARK INTER:                  -8.914
REMARK INTRA:                  -2.456
REMARK UNBOUND:                -2.867
REMARK  Name = lig_assembled_70.pdb
REMARK  16 active torsions:
REMARK  status: ('A' for Active; 'I' for Inactive)
REMARK    1  A    between atoms: _2  and  _10
REMARK    2  A    between atoms: _5  and  _22
REMARK    3  A    between atoms: _7  and  _8
REMARK    4  A    between atoms: _7  and  _22
REMARK    5  A    between atoms: _18  and  _38
REMARK    6  A    between atoms: _20  and  _26
REMARK    7  A    between atoms: _21  and  _25
REMARK    8  A    between atoms: _25  and  _26
REMARK    9  A    between atoms: _28  and  _29
REMARK   10  A    between atoms: _30  and  _31
REMARK   11  A    between atoms: _32  and  _34
REMARK   12  A    between atoms: _34  and  _35
REMARK   13  A    between atoms: _34  and  _36
REMARK   14  A    between atoms: _36  and  _37
REMARK   15  A    between atoms: _36  and  _38
REMARK   16  A    between atoms: _39  and  _41
REMARK                            x       y       z     vdW  Elec       q    Type
REMARK                         _______ _______ _______ _____ _____    ______ ____
ROOT
ATOM      1  C   UNL     1      -2.923  12.963  13.410  0.00  0.00    +0.163 C 
ENDROOT
BRANCH   1   2
ATOM      2  O   UNL     1      -2.916  12.143  14.590  0.00  0.00    -0.388 OA
ATOM      3  H   UNL     1      -2.011  11.929  14.827  0.00  0.00    +0.210 HD
ENDBRANCH   1   2
BRANCH   1   4
ATOM      4  C   UNL     1      -4.202  13.791  13.358  0.00  0.00    +0.141 C 
BRANCH   4   7
ATOM      5  C   UNL     1      -6.254  12.488  13.805  0.00  0.00    +0.401 C 
ATOM      6  O   UNL     1      -6.425  12.175  12.625  0.00  0.00    -0.226 OA
ATOM      7  N   UNL     1      -5.244  13.246  14.236  0.00  0.00    -0.279 N 
ATOM      8  H   UNL     1      -5.194  13.456  15.223  0.00  0.00    +0.152 HD
BRANCH   5   9
ATOM      9  O   UNL     1      -7.183  12.026  14.788  0.00  0.00    -0.444 OA
BRANCH   9  10
ATOM     10  C   UNL     1      -6.609  10.933  15.511  0.00  0.00    +0.292 C 
BRANCH  10  12
ATOM     11  N   UNL     1      -7.286  12.134  17.572  0.00  0.00    -0.131 NA
ATOM     12  C   UNL     1      -6.423  11.293  16.929  0.00  0.00    +0.121 A 
ATOM     13  C   UNL     1      -5.443  10.899  17.810  0.00  0.00    +0.143 A 
ATOM     14  N   UNL     1      -5.760  11.519  18.996  0.00  0.00    -0.218 N 
ATOM     15  N   UNL     1      -6.872  12.271  18.826  0.00  0.00    -0.060 NA
BRANCH  14  16
ATOM     16  C   UNL     1      -5.101  11.420  20.239  0.00  0.00    +0.086 A 
ATOM     17  C   UNL     1      -4.543  10.219  20.645  0.00  0.00    +0.139 A 
ATOM     18  N   UNL     1      -3.856  10.065  21.807  0.00  0.00    -0.253 NA
ATOM     19  C   UNL     1      -3.699  11.138  22.603  0.00  0.00    +0.071 A 
ATOM     20  C   UNL     1      -4.246  12.397  22.279  0.00  0.00    +0.002 A 
ATOM     21  C   UNL     1      -4.061  13.498  23.135  0.00  0.00    +0.010 A 
ATOM     22  C   UNL     1      -3.318  13.360  24.305  0.00  0.00    +0.001 A 
ATOM     23  C   UNL     1      -2.770  12.124  24.625  0.00  0.00    +0.002 A 
ATOM     24  C   UNL     1      -2.970  11.029  23.780  0.00  0.00    +0.028 A 
ATOM     25  C   UNL     1      -4.961  12.524  21.082  0.00  0.00    +0.039 A 
ENDBRANCH  14  16
ENDBRANCH  10  12
ENDBRANCH   9  10
ENDBRANCH   5   9
ENDBRANCH   4   7
ENDBRANCH   1   4
BRANCH   1  26
ATOM     26  C   UNL     1      -2.817  12.100  12.141  0.00  0.00    +0.175 C 
BRANCH  26  27
ATOM     27  C   UNL     1      -3.218  10.640  12.399  0.00  0.00    +0.176 C 
ATOM     28  O   UNL     1      -2.079   9.962  12.996  0.00  0.00    -0.332 OA
ATOM     29  C   UNL     1      -2.312   8.576  13.412  0.00  0.00    +0.277 C 
ATOM     30  C   UNL     1      -2.856   7.740  12.227  0.00  0.00    +0.110 C 
ATOM     31  C   UNL     1      -4.049   8.436  11.540  0.00  0.00    +0.143 C 
ATOM     32  C   UNL     1      -3.698   9.873  11.153  0.00  0.00    +0.133 C 
BRANCH  32  33
ATOM     33  N   UNL     1      -4.869  10.553  10.578  0.00  0.00    -0.308 N 
ATOM     34  H   UNL     1      -5.695  10.638  11.154  0.00  0.00    +0.149 HD
ATOM     35  C   UNL     1      -4.912  11.066   9.345  0.00  0.00    +0.210 C 
ATOM     36  C   UNL     1      -3.647  10.897   8.483  0.00  0.00    +0.109 C 
ATOM     37  O   UNL     1      -5.903  11.643   8.895  0.00  0.00    -0.276 OA
ENDBRANCH  32  33
BRANCH  29  38
ATOM     38  C   UNL     1      -3.311   8.518  14.586  0.00  0.00    +0.414 C 
ATOM     39  O   UNL     1      -4.047   7.541  14.726  0.00  0.00    -0.240 OA
ATOM     40  O   UNL     1      -3.382   9.446  15.392  0.00  0.00    -0.240 OA
ENDBRANCH  29  38
BRANCH  31  41
ATOM     41  O   UNL     1      -4.420   7.710  10.367  0.00  0.00    -0.390 OA
ATOM     42  H   UNL     1      -5.222   7.211  10.539  0.00  0.00    +0.210 HD
ENDBRANCH  31  41
BRANCH  29  43
ATOM     43  O   UNL     1      -1.041   8.011  13.824  0.00  0.00    -0.343 OA
ATOM     44  C   UNL     1      -0.769   8.089  15.246  0.00  0.00    +0.198 C 
ENDBRANCH  29  43
ENDBRANCH  26  27
BRANCH  26  45
ATOM     45  O   UNL     1      -1.479  12.161  11.609  0.00  0.00    -0.387 OA
ATOM     46  H   UNL     1      -0.859  12.340  12.321  0.00  0.00    +0.210 HD
ENDBRANCH  26  45
ENDBRANCH   1  26
TORSDOF 14
