REMARK VINA RESULT:    -4.588      2.716      8.713
REMARK INTER + INTRA:         -11.888
REMARK INTER:                  -8.771
REMARK INTRA:                  -3.117
REMARK UNBOUND:                -3.679
REMARK  Name = lig_assembled_0.pdb
REMARK  17 active torsions:
REMARK  status: ('A' for Active; 'I' for Inactive)
REMARK    1  A    between atoms: _2  and  _10
REMARK    2  A    between atoms: _5  and  _21
REMARK    3  A    between atoms: _7  and  _8
REMARK    4  A    between atoms: _7  and  _21
REMARK    5  A    between atoms: _11  and  _12
REMARK    6  A    between atoms: _17  and  _37
REMARK    7  A    between atoms: _19  and  _25
REMARK    8  A    between atoms: _20  and  _24
REMARK    9  A    between atoms: _24  and  _25
REMARK   10  A    between atoms: _27  and  _28
REMARK   11  A    between atoms: _29  and  _30
REMARK   12  A    between atoms: _31  and  _33
REMARK   13  A    between atoms: _33  and  _34
REMARK   14  A    between atoms: _33  and  _35
REMARK   15  A    between atoms: _35  and  _36
REMARK   16  A    between atoms: _35  and  _37
REMARK   17  A    between atoms: _38  and  _40
REMARK                            x       y       z     vdW  Elec       q    Type
REMARK                         _______ _______ _______ _____ _____    ______ ____
ROOT
ATOM      1  C   UNL     1      -5.364  13.711  29.292  0.00  0.00    +0.163 C 
ENDROOT
BRANCH   1   2
ATOM      2  O   UNL     1      -5.034  13.900  30.678  0.00  0.00    -0.388 OA
ATOM      3  H   UNL     1      -4.558  14.727  30.785  0.00  0.00    +0.210 HD
ENDBRANCH   1   2
BRANCH   1   4
ATOM      4  C   UNL     1      -6.700  14.377  28.978  0.00  0.00    +0.141 C 
BRANCH   4   7
ATOM      5  C   UNL     1      -6.967  15.787  26.967  0.00  0.00    +0.401 C 
ATOM      6  O   UNL     1      -6.913  16.850  27.590  0.00  0.00    -0.226 OA
ATOM      7  N   UNL     1      -6.883  14.584  27.536  0.00  0.00    -0.279 N 
ATOM      8  H   UNL     1      -6.948  13.770  26.942  0.00  0.00    +0.152 HD
BRANCH   5   9
ATOM      9  O   UNL     1      -7.136  15.822  25.547  0.00  0.00    -0.444 OA
BRANCH   9  10
ATOM     10  C   UNL     1      -7.508  14.523  25.078  0.00  0.00    +0.292 C 
BRANCH  10  12
ATOM     11  N   UNL     1      -6.261  15.249  23.077  0.00  0.00    -0.131 NA
ATOM     12  C   UNL     1      -6.893  14.257  23.764  0.00  0.00    +0.121 A 
ATOM     13  C   UNL     1      -6.810  13.086  23.045  0.00  0.00    +0.143 A 
ATOM     14  N   UNL     1      -6.193  13.432  21.865  0.00  0.00    -0.219 N 
ATOM     15  N   UNL     1      -5.794  14.732  21.951  0.00  0.00    -0.060 NA
BRANCH  14  16
ATOM     16  C   UNL     1      -5.845  12.646  20.730  0.00  0.00    +0.079 A 
ATOM     17  C   UNL     1      -4.545  12.187  20.438  0.00  0.00    +0.062 A 
ATOM     18  C   UNL     1      -4.335  11.449  19.253  0.00  0.00    +0.015 A 
ATOM     19  C   UNL     1      -5.379  11.181  18.367  0.00  0.00    +0.001 A 
ATOM     20  C   UNL     1      -6.661  11.621  18.663  0.00  0.00    +0.002 A 
ATOM     21  C   UNL     1      -6.896  12.336  19.837  0.00  0.00    +0.028 A 
BRANCH  17  22
ATOM     22  C   UNL     1      -3.399  12.263  21.387  0.00  0.00    +0.244 C 
ATOM     23  O   UNL     1      -2.861  11.267  21.843  0.00  0.00    -0.270 OA
ATOM     24  N   UNL     1      -2.929  13.508  21.714  0.00  0.00    -0.325 N 
ATOM     25  H   UNL     1      -2.118  13.549  22.319  0.00  0.00    +0.145 HD
ATOM     26  H   UNL     1      -3.309  14.377  21.370  0.00  0.00    +0.145 HD
ENDBRANCH  17  22
ENDBRANCH  14  16
ENDBRANCH  10  12
ENDBRANCH   9  10
ENDBRANCH   5   9
ENDBRANCH   4   7
ENDBRANCH   1   4
BRANCH   1  27
ATOM     27  C   UNL     1      -5.441  12.215  28.944  0.00  0.00    +0.175 C 
BRANCH  27  28
ATOM     28  C   UNL     1      -4.334  11.792  27.967  0.00  0.00    +0.176 C 
ATOM     29  O   UNL     1      -4.965  11.422  26.710  0.00  0.00    -0.332 OA
ATOM     30  C   UNL     1      -4.049  11.087  25.615  0.00  0.00    +0.277 C 
ATOM     31  C   UNL     1      -3.065   9.976  26.053  0.00  0.00    +0.110 C 
ATOM     32  C   UNL     1      -2.392  10.310  27.402  0.00  0.00    +0.143 C 
ATOM     33  C   UNL     1      -3.437  10.645  28.467  0.00  0.00    +0.133 C 
BRANCH  33  34
ATOM     34  N   UNL     1      -2.782  11.046  29.723  0.00  0.00    -0.308 N 
ATOM     35  H   UNL     1      -2.265  11.914  29.729  0.00  0.00    +0.149 HD
ATOM     36  C   UNL     1      -2.826  10.337  30.854  0.00  0.00    +0.210 C 
ATOM     37  C   UNL     1      -3.600   9.006  30.805  0.00  0.00    +0.109 C 
ATOM     38  O   UNL     1      -2.280  10.705  31.895  0.00  0.00    -0.276 OA
ENDBRANCH  33  34
BRANCH  30  39
ATOM     39  C   UNL     1      -3.255  12.332  25.167  0.00  0.00    +0.414 C 
ATOM     40  O   UNL     1      -2.027  12.297  25.111  0.00  0.00    -0.240 OA
ATOM     41  O   UNL     1      -3.843  13.370  24.861  0.00  0.00    -0.240 OA
ENDBRANCH  30  39
BRANCH  32  42
ATOM     42  O   UNL     1      -1.613   9.197  27.840  0.00  0.00    -0.390 OA
ATOM     43  H   UNL     1      -2.061   8.380  27.608  0.00  0.00    +0.210 HD
ENDBRANCH  32  42
BRANCH  30  44
ATOM     44  O   UNL     1      -4.839  10.587  24.506  0.00  0.00    -0.343 OA
ATOM     45  C   UNL     1      -4.529   9.231  24.095  0.00  0.00    +0.198 C 
ENDBRANCH  30  44
ENDBRANCH  27  28
BRANCH  27  46
ATOM     46  O   UNL     1      -6.736  11.899  28.395  0.00  0.00    -0.387 OA
ATOM     47  H   UNL     1      -6.630  11.319  27.637  0.00  0.00    +0.210 HD
ENDBRANCH  27  46
ENDBRANCH   1  27
TORSDOF 15
