REMARK VINA RESULT:    -5.188      4.417      6.675
REMARK INTER + INTRA:         -11.388
REMARK INTER:                  -9.250
REMARK INTRA:                  -2.137
REMARK UNBOUND:                -1.954
REMARK  Name = lig_assembled_60.pdb
REMARK  18 active torsions:
REMARK  status: ('A' for Active; 'I' for Inactive)
REMARK    1  A    between atoms: _2  and  _10
REMARK    2  A    between atoms: _3  and  _41
REMARK    3  A    between atoms: _5  and  _21
REMARK    4  A    between atoms: _7  and  _8
REMARK    5  A    between atoms: _7  and  _21
REMARK    6  A    between atoms: _13  and  _41
REMARK    7  A    between atoms: _17  and  _37
REMARK    8  A    between atoms: _19  and  _25
REMARK    9  A    between atoms: _20  and  _24
REMARK   10  A    between atoms: _24  and  _25
REMARK   11  A    between atoms: _27  and  _28
REMARK   12  A    between atoms: _29  and  _30
REMARK   13  A    between atoms: _31  and  _33
REMARK   14  A    between atoms: _33  and  _34
REMARK   15  A    between atoms: _33  and  _35
REMARK   16  A    between atoms: _35  and  _36
REMARK   17  A    between atoms: _35  and  _37
REMARK   18  A    between atoms: _38  and  _40
REMARK                            x       y       z     vdW  Elec       q    Type
REMARK                         _______ _______ _______ _____ _____    ______ ____
ROOT
ATOM      1  C   UNL     1      -5.716  10.037  18.793  0.00  0.00    +0.141 C 
ENDROOT
BRANCH   1   4
ATOM      2  C   UNL     1      -4.137  11.143  20.338  0.00  0.00    +0.401 C 
ATOM      3  O   UNL     1      -3.943  12.110  19.597  0.00  0.00    -0.226 OA
ATOM      4  N   UNL     1      -4.945  10.125  20.039  0.00  0.00    -0.279 N 
ATOM      5  H   UNL     1      -5.031   9.373  20.708  0.00  0.00    +0.152 HD
BRANCH   2   6
ATOM      6  O   UNL     1      -3.461  11.087  21.597  0.00  0.00    -0.444 OA
BRANCH   6   7
ATOM      7  C   UNL     1      -4.226  11.789  22.581  0.00  0.00    +0.292 C 
BRANCH   7   9
ATOM      8  N   UNL     1      -2.922  10.361  24.128  0.00  0.00    -0.131 NA
ATOM      9  C   UNL     1      -3.869  11.325  23.935  0.00  0.00    +0.121 A 
ATOM     10  C   UNL     1      -4.351  11.731  25.157  0.00  0.00    +0.143 A 
ATOM     11  N   UNL     1      -3.636  11.005  26.082  0.00  0.00    -0.220 N 
ATOM     12  N   UNL     1      -2.793  10.165  25.433  0.00  0.00    -0.060 NA
BRANCH  11  13
ATOM     13  C   UNL     1      -3.675  11.090  27.498  0.00  0.00    +0.067 A 
ATOM     14  C   UNL     1      -4.222  12.217  28.131  0.00  0.00    +0.030 A 
ATOM     15  C   UNL     1      -4.192  12.323  29.523  0.00  0.00    +0.030 A 
ATOM     16  C   UNL     1      -3.629  11.296  30.285  0.00  0.00    +0.105 A 
ATOM     17  C   UNL     1      -3.095  10.162  29.666  0.00  0.00    +0.030 A 
ATOM     18  C   UNL     1      -3.125  10.056  28.273  0.00  0.00    +0.030 A 
BRANCH  16  19
ATOM     19  S   UNL     1      -3.527  11.478  32.041  0.00  0.00    +0.056 S 
ATOM     20  O   UNL     1      -3.984  12.796  32.411  0.00  0.00    -0.153 OA
ATOM     21  O   UNL     1      -4.027  10.277  32.669  0.00  0.00    -0.153 OA
BRANCH  19  22
ATOM     22  N   UNL     1      -1.868  11.474  32.288  0.00  0.00    -0.204 NA
ATOM     23  H   UNL     1      -1.580  12.355  32.714  0.00  0.00    +0.144 HD
ATOM     24  H   UNL     1      -1.390  11.264  31.411  0.00  0.00    +0.144 HD
ENDBRANCH  19  22
ENDBRANCH  16  19
ENDBRANCH  11  13
ENDBRANCH   7   9
ENDBRANCH   6   7
ENDBRANCH   2   6
ENDBRANCH   1   4
BRANCH   1  25
ATOM     25  C   UNL     1      -4.942   9.314  17.696  0.00  0.00    +0.163 C 
BRANCH  25  26
ATOM     26  O   UNL     1      -5.605   8.086  17.354  0.00  0.00    -0.388 OA
ATOM     27  H   UNL     1      -6.541   8.253  17.220  0.00  0.00    +0.210 HD
ENDBRANCH  25  26
BRANCH  25  28
ATOM     28  C   UNL     1      -4.815  10.231  16.467  0.00  0.00    +0.175 C 
BRANCH  28  29
ATOM     29  C   UNL     1      -4.173   9.511  15.272  0.00  0.00    +0.176 C 
ATOM     30  O   UNL     1      -3.116   8.652  15.783  0.00  0.00    -0.332 OA
ATOM     31  C   UNL     1      -2.455   7.801  14.789  0.00  0.00    +0.277 C 
ATOM     32  C   UNL     1      -1.914   8.656  13.617  0.00  0.00    +0.110 C 
ATOM     33  C   UNL     1      -2.994   9.608  13.062  0.00  0.00    +0.143 C 
ATOM     34  C   UNL     1      -3.617  10.444  14.180  0.00  0.00    +0.133 C 
BRANCH  34  35
ATOM     35  N   UNL     1      -4.703  11.284  13.652  0.00  0.00    -0.308 N 
ATOM     36  H   UNL     1      -5.555  10.825  13.360  0.00  0.00    +0.149 HD
ATOM     37  C   UNL     1      -4.638  12.613  13.534  0.00  0.00    +0.210 C 
ATOM     38  C   UNL     1      -3.317  13.279  13.963  0.00  0.00    +0.109 C 
ATOM     39  O   UNL     1      -5.569  13.293  13.101  0.00  0.00    -0.276 OA
ENDBRANCH  34  35
BRANCH  31  40
ATOM     40  C   UNL     1      -3.432   6.738  14.244  0.00  0.00    +0.414 C 
ATOM     41  O   UNL     1      -4.500   6.524  14.818  0.00  0.00    -0.240 OA
ATOM     42  O   UNL     1      -3.153   6.095  13.231  0.00  0.00    -0.240 OA
ENDBRANCH  31  40
BRANCH  33  43
ATOM     43  O   UNL     1      -2.414  10.480  12.090  0.00  0.00    -0.390 OA
ATOM     44  H   UNL     1      -1.998   9.959  11.399  0.00  0.00    +0.210 HD
ENDBRANCH  33  43
BRANCH  31  45
ATOM     45  O   UNL     1      -1.332   7.146  15.434  0.00  0.00    -0.343 OA
ATOM     46  C   UNL     1      -1.677   6.326  16.579  0.00  0.00    +0.198 C 
ENDBRANCH  31  45
ENDBRANCH  28  29
BRANCH  28  47
ATOM     47  O   UNL     1      -4.056  11.409  16.803  0.00  0.00    -0.387 OA
ATOM     48  H   UNL     1      -4.650  12.096  17.115  0.00  0.00    +0.210 HD
ENDBRANCH  28  47
ENDBRANCH  25  28
ENDBRANCH   1  25
TORSDOF 16
