REMARK VINA RESULT:    -5.203      3.458      9.899
REMARK INTER + INTRA:         -11.612
REMARK INTER:                  -9.146
REMARK INTRA:                  -2.467
REMARK UNBOUND:                -2.303
REMARK  Name = lig_assembled_4.pdb
REMARK  19 active torsions:
REMARK  status: ('A' for Active; 'I' for Inactive)
REMARK    1  A    between atoms: _2  and  _9
REMARK    2  A    between atoms: _4  and  _21
REMARK    3  A    between atoms: _6  and  _7
REMARK    4  A    between atoms: _6  and  _21
REMARK    5  A    between atoms: _10  and  _11
REMARK    6  A    between atoms: _11  and  _12
REMARK    7  A    between atoms: _11  and  _13
REMARK    8  A    between atoms: _17  and  _37
REMARK    9  A    between atoms: _19  and  _25
REMARK   10  A    between atoms: _20  and  _24
REMARK   11  A    between atoms: _24  and  _25
REMARK   12  A    between atoms: _27  and  _28
REMARK   13  A    between atoms: _29  and  _30
REMARK   14  A    between atoms: _31  and  _33
REMARK   15  A    between atoms: _33  and  _34
REMARK   16  A    between atoms: _33  and  _35
REMARK   17  A    between atoms: _35  and  _36
REMARK   18  A    between atoms: _35  and  _37
REMARK   19  A    between atoms: _38  and  _40
REMARK                            x       y       z     vdW  Elec       q    Type
REMARK                         _______ _______ _______ _____ _____    ______ ____
ROOT
ATOM      1  C   UNL     1      -2.960  12.429  23.126  0.00  0.00    +0.163 C 
ENDROOT
BRANCH   1   2
ATOM      2  O   UNL     1      -2.648  13.006  24.405  0.00  0.00    -0.388 OA
ATOM      3  H   UNL     1      -3.460  13.149  24.899  0.00  0.00    +0.210 HD
ENDBRANCH   1   2
BRANCH   1   4
ATOM      4  C   UNL     1      -3.833  13.386  22.322  0.00  0.00    +0.141 C 
BRANCH   4   7
ATOM      5  C   UNL     1      -6.056  13.234  21.253  0.00  0.00    +0.401 C 
ATOM      6  O   UNL     1      -6.370  14.395  21.525  0.00  0.00    -0.226 OA
ATOM      7  N   UNL     1      -4.893  12.678  21.593  0.00  0.00    -0.279 N 
ATOM      8  H   UNL     1      -4.731  11.715  21.333  0.00  0.00    +0.152 HD
BRANCH   5   9
ATOM      9  O   UNL     1      -6.982  12.414  20.535  0.00  0.00    -0.444 OA
BRANCH   9  10
ATOM     10  C   UNL     1      -6.269  11.395  19.829  0.00  0.00    +0.292 C 
BRANCH  10  12
ATOM     11  N   UNL     1      -7.067  12.091  17.600  0.00  0.00    -0.131 NA
ATOM     12  C   UNL     1      -6.031  11.799  18.431  0.00  0.00    +0.121 A 
ATOM     13  C   UNL     1      -4.849  11.913  17.736  0.00  0.00    +0.143 A 
ATOM     14  N   UNL     1      -5.228  12.154  16.428  0.00  0.00    -0.219 N 
ATOM     15  N   UNL     1      -6.567  12.331  16.395  0.00  0.00    -0.060 NA
BRANCH  14  16
ATOM     16  C   UNL     1      -4.390  12.192  15.274  0.00  0.00    +0.070 A 
ATOM     17  C   UNL     1      -3.742  11.044  14.741  0.00  0.00    -0.019 A 
ATOM     18  C   UNL     1      -2.914  11.229  13.611  0.00  0.00    +0.006 A 
ATOM     19  C   UNL     1      -2.715  12.484  13.034  0.00  0.00    +0.000 A 
ATOM     20  C   UNL     1      -3.358  13.596  13.558  0.00  0.00    +0.002 A 
ATOM     21  C   UNL     1      -4.187  13.453  14.669  0.00  0.00    +0.028 A 
BRANCH  17  22
ATOM     22  C   UNL     1      -3.877   9.633  15.317  0.00  0.00    +0.015 C 
ATOM     23  C   UNL     1      -2.662   8.720  15.093  0.00  0.00    +0.012 C 
ATOM     24  C   UNL     1      -5.138   8.963  14.767  0.00  0.00    +0.012 C 
ENDBRANCH  17  22
ENDBRANCH  14  16
ENDBRANCH  10  12
ENDBRANCH   9  10
ENDBRANCH   5   9
ENDBRANCH   4   7
ENDBRANCH   1   4
BRANCH   1  25
ATOM     25  C   UNL     1      -3.688  11.084  23.292  0.00  0.00    +0.175 C 
BRANCH  25  26
ATOM     26  C   UNL     1      -3.718  10.620  24.756  0.00  0.00    +0.176 C 
ATOM     27  O   UNL     1      -3.245   9.245  24.798  0.00  0.00    -0.332 OA
ATOM     28  C   UNL     1      -3.104   8.665  26.137  0.00  0.00    +0.277 C 
ATOM     29  C   UNL     1      -4.434   8.785  26.921  0.00  0.00    +0.110 C 
ATOM     30  C   UNL     1      -4.992  10.223  26.878  0.00  0.00    +0.143 C 
ATOM     31  C   UNL     1      -5.094  10.728  25.438  0.00  0.00    +0.133 C 
BRANCH  31  32
ATOM     32  N   UNL     1      -5.545  12.129  25.415  0.00  0.00    -0.308 N 
ATOM     33  H   UNL     1      -4.966  12.819  25.872  0.00  0.00    +0.149 HD
ATOM     34  C   UNL     1      -6.670  12.547  24.828  0.00  0.00    +0.210 C 
ATOM     35  C   UNL     1      -7.544  11.468  24.163  0.00  0.00    +0.109 C 
ATOM     36  O   UNL     1      -7.015  13.729  24.812  0.00  0.00    -0.276 OA
ENDBRANCH  31  32
BRANCH  28  37
ATOM     37  C   UNL     1      -1.977   9.367  26.922  0.00  0.00    +0.414 C 
ATOM     38  O   UNL     1      -1.014   9.848  26.327  0.00  0.00    -0.240 OA
ATOM     39  O   UNL     1      -2.031   9.452  28.150  0.00  0.00    -0.240 OA
ENDBRANCH  28  37
BRANCH  30  40
ATOM     40  O   UNL     1      -6.287  10.255  27.480  0.00  0.00    -0.390 OA
ATOM     41  H   UNL     1      -6.478  11.146  27.783  0.00  0.00    +0.210 HD
ENDBRANCH  30  40
BRANCH  28  42
ATOM     42  O   UNL     1      -2.789   7.257  25.984  0.00  0.00    -0.343 OA
ATOM     43  C   UNL     1      -3.801   6.345  26.482  0.00  0.00    +0.198 C 
ENDBRANCH  28  42
ENDBRANCH  25  26
BRANCH  25  44
ATOM     44  O   UNL     1      -3.069  10.079  22.465  0.00  0.00    -0.387 OA
ATOM     45  H   UNL     1      -3.433  10.126  21.577  0.00  0.00    +0.210 HD
ENDBRANCH  25  44
ENDBRANCH   1  25
TORSDOF 15
