REMARK VINA RESULT:    -4.927      6.017     11.597
REMARK INTER + INTRA:         -10.574
REMARK INTER:                  -8.565
REMARK INTRA:                  -2.009
REMARK UNBOUND:                -2.334
REMARK  Name = lig_assembled_65.pdb
REMARK  16 active torsions:
REMARK  status: ('A' for Active; 'I' for Inactive)
REMARK    1  A    between atoms: _8  and  _20
REMARK    2  A    between atoms: _9  and  _15
REMARK    3  A    between atoms: _10  and  _11
REMARK    4  A    between atoms: _10  and  _20
REMARK    5  A    between atoms: _16  and  _36
REMARK    6  A    between atoms: _18  and  _24
REMARK    7  A    between atoms: _19  and  _23
REMARK    8  A    between atoms: _23  and  _24
REMARK    9  A    between atoms: _26  and  _27
REMARK   10  A    between atoms: _28  and  _29
REMARK   11  A    between atoms: _30  and  _32
REMARK   12  A    between atoms: _32  and  _33
REMARK   13  A    between atoms: _32  and  _34
REMARK   14  A    between atoms: _34  and  _35
REMARK   15  A    between atoms: _34  and  _36
REMARK   16  A    between atoms: _37  and  _39
REMARK                            x       y       z     vdW  Elec       q    Type
REMARK                         _______ _______ _______ _____ _____    ______ ____
ROOT
ATOM      1  C   UNL     1      -3.334  12.694  24.056  0.00  0.00    +0.163 C 
ENDROOT
BRANCH   1   2
ATOM      2  O   UNL     1      -1.947  12.820  24.410  0.00  0.00    -0.388 OA
ATOM      3  H   UNL     1      -1.416  12.877  23.612  0.00  0.00    +0.210 HD
ENDBRANCH   1   2
BRANCH   1   4
ATOM      4  C   UNL     1      -3.715  13.771  23.046  0.00  0.00    +0.141 C 
BRANCH   4   7
ATOM      5  C   UNL     1      -5.674  13.570  21.554  0.00  0.00    +0.401 C 
ATOM      6  O   UNL     1      -6.349  14.395  22.174  0.00  0.00    -0.226 OA
ATOM      7  N   UNL     1      -4.435  13.213  21.895  0.00  0.00    -0.279 N 
ATOM      8  H   UNL     1      -3.966  12.520  21.330  0.00  0.00    +0.152 HD
BRANCH   5   9
ATOM      9  O   UNL     1      -6.236  12.941  20.400  0.00  0.00    -0.444 OA
BRANCH   9  10
ATOM     10  C   UNL     1      -5.839  11.567  20.364  0.00  0.00    +0.292 C 
BRANCH  10  12
ATOM     11  N   UNL     1      -5.458  12.086  17.973  0.00  0.00    -0.131 NA
ATOM     12  C   UNL     1      -5.391  11.195  19.009  0.00  0.00    +0.121 A 
ATOM     13  C   UNL     1      -4.869  10.010  18.548  0.00  0.00    +0.149 A 
ATOM     14  N   UNL     1      -4.637  10.222  17.206  0.00  0.00    -0.155 N 
ATOM     15  C   UNL     1      -4.112   9.287  16.265  0.00  0.00    +0.416 C 
ATOM     16  N   UNL     1      -3.953   9.678  14.995  0.00  0.00    +0.041 NA
ATOM     17  C   UNL     1      -3.476   8.745  14.174  0.00  0.00    +0.339 C 
ATOM     18  C   UNL     1      -3.289   9.118  12.736  0.00  0.00    +0.149 C 
ATOM     19  N   UNL     1      -3.165   7.502  14.541  0.00  0.00    +0.007 NA
ATOM     20  C   UNL     1      -3.372   7.214  15.816  0.00  0.00    +0.386 C 
ATOM     21  N   UNL     1      -3.074   5.935  16.235  0.00  0.00    -0.296 N 
ATOM     22  H   UNL     1      -2.411   5.499  15.609  0.00  0.00    +0.148 HD
ATOM     23  H   UNL     1      -2.869   5.911  17.223  0.00  0.00    +0.148 HD
ATOM     24  N   UNL     1      -3.820   8.062  16.725  0.00  0.00    -0.290 NA
ATOM     25  N   UNL     1      -4.995  11.490  16.880  0.00  0.00    -0.055 NA
ENDBRANCH  10  12
ENDBRANCH   9  10
ENDBRANCH   5   9
ENDBRANCH   4   7
ENDBRANCH   1   4
BRANCH   1  26
ATOM     26  C   UNL     1      -4.233  12.813  25.299  0.00  0.00    +0.175 C 
BRANCH  26  27
ATOM     27  C   UNL     1      -3.988  11.675  26.300  0.00  0.00    +0.176 C 
ATOM     28  O   UNL     1      -3.782  10.450  25.544  0.00  0.00    -0.332 OA
ATOM     29  C   UNL     1      -3.427   9.268  26.335  0.00  0.00    +0.277 C 
ATOM     30  C   UNL     1      -4.478   9.026  27.447  0.00  0.00    +0.110 C 
ATOM     31  C   UNL     1      -4.755  10.309  28.258  0.00  0.00    +0.143 C 
ATOM     32  C   UNL     1      -5.111  11.476  27.336  0.00  0.00    +0.133 C 
BRANCH  32  33
ATOM     33  N   UNL     1      -5.287  12.712  28.114  0.00  0.00    -0.308 N 
ATOM     34  H   UNL     1      -4.467  13.125  28.536  0.00  0.00    +0.149 HD
ATOM     35  C   UNL     1      -6.460  13.325  28.298  0.00  0.00    +0.210 C 
ATOM     36  C   UNL     1      -7.694  12.657  27.663  0.00  0.00    +0.109 C 
ATOM     37  O   UNL     1      -6.575  14.368  28.942  0.00  0.00    -0.276 OA
ENDBRANCH  32  33
BRANCH  29  38
ATOM     38  C   UNL     1      -2.032   9.435  26.973  0.00  0.00    +0.414 C 
ATOM     39  O   UNL     1      -1.835   9.083  28.135  0.00  0.00    -0.240 OA
ATOM     40  O   UNL     1      -1.104   9.922  26.325  0.00  0.00    -0.240 OA
ENDBRANCH  29  38
BRANCH  29  41
ATOM     41  O   UNL     1      -3.425   8.119  25.450  0.00  0.00    -0.343 OA
ATOM     42  C   UNL     1      -4.568   8.029  24.562  0.00  0.00    +0.198 C 
ENDBRANCH  29  41
BRANCH  31  43
ATOM     43  O   UNL     1      -5.833  10.082  29.166  0.00  0.00    -0.390 OA
ATOM     44  H   UNL     1      -6.056  10.902  29.612  0.00  0.00    +0.210 HD
ENDBRANCH  31  43
ENDBRANCH  26  27
BRANCH  26  45
ATOM     45  O   UNL     1      -5.620  12.842  24.908  0.00  0.00    -0.387 OA
ATOM     46  H   UNL     1      -5.822  12.061  24.387  0.00  0.00    +0.210 HD
ENDBRANCH  26  45
ENDBRANCH   1  26
TORSDOF 13
