REMARK VINA RESULT:    -4.727      2.828      5.287
REMARK INTER + INTRA:         -12.762
REMARK INTER:                  -8.303
REMARK INTRA:                  -4.459
REMARK UNBOUND:                -3.062
REMARK  Name = lig_assembled_74.pdb
REMARK  24 active torsions:
REMARK  status: ('A' for Active; 'I' for Inactive)
REMARK    1  A    between atoms: _2  and  _9
REMARK    2  A    between atoms: _4  and  _22
REMARK    3  A    between atoms: _5  and  _14
REMARK    4  A    between atoms: _6  and  _7
REMARK    5  A    between atoms: _6  and  _22
REMARK    6  A    between atoms: _9  and  _10
REMARK    7  A    between atoms: _10  and  _11
REMARK    8  A    between atoms: _10  and  _13
REMARK    9  A    between atoms: _11  and  _12
REMARK   10  A    between atoms: _12  and  _16
REMARK   11  A    between atoms: _13  and  _14
REMARK   12  A    between atoms: _14  and  _15
REMARK   13  A    between atoms: _18  and  _38
REMARK   14  A    between atoms: _20  and  _26
REMARK   15  A    between atoms: _21  and  _25
REMARK   16  A    between atoms: _25  and  _26
REMARK   17  A    between atoms: _28  and  _29
REMARK   18  A    between atoms: _30  and  _31
REMARK   19  A    between atoms: _32  and  _34
REMARK   20  A    between atoms: _34  and  _35
REMARK   21  A    between atoms: _34  and  _36
REMARK   22  A    between atoms: _36  and  _37
REMARK   23  A    between atoms: _36  and  _38
REMARK   24  A    between atoms: _39  and  _41
REMARK                            x       y       z     vdW  Elec       q    Type
REMARK                         _______ _______ _______ _____ _____    ______ ____
ROOT
ATOM      1  C   UNL     1      -6.019   7.878  23.476  0.00  0.00    +0.163 C 
ENDROOT
BRANCH   1   2
ATOM      2  O   UNL     1      -5.270   6.697  23.807  0.00  0.00    -0.388 OA
ATOM      3  H   UNL     1      -4.408   6.949  24.146  0.00  0.00    +0.210 HD
ENDBRANCH   1   2
BRANCH   1   4
ATOM      4  C   UNL     1      -5.130   9.131  23.545  0.00  0.00    +0.175 C 
BRANCH   4   5
ATOM      5  C   UNL     1      -4.525   9.334  24.942  0.00  0.00    +0.176 C 
ATOM      6  O   UNL     1      -3.491   8.330  25.132  0.00  0.00    -0.332 OA
ATOM      7  C   UNL     1      -2.726   8.436  26.378  0.00  0.00    +0.277 C 
ATOM      8  C   UNL     1      -3.678   8.444  27.599  0.00  0.00    +0.110 C 
ATOM      9  C   UNL     1      -4.813   9.476  27.428  0.00  0.00    +0.143 C 
ATOM     10  C   UNL     1      -5.540   9.276  26.098  0.00  0.00    +0.133 C 
BRANCH  10  11
ATOM     11  N   UNL     1      -6.562  10.317  25.908  0.00  0.00    -0.308 N 
ATOM     12  H   UNL     1      -6.247  11.262  25.736  0.00  0.00    +0.149 HD
ATOM     13  C   UNL     1      -7.879  10.097  25.948  0.00  0.00    +0.210 C 
ATOM     14  C   UNL     1      -8.327   8.652  26.238  0.00  0.00    +0.109 C 
ATOM     15  O   UNL     1      -8.712  10.986  25.771  0.00  0.00    -0.276 OA
ENDBRANCH  10  11
BRANCH   7  16
ATOM     16  C   UNL     1      -1.867   9.717  26.384  0.00  0.00    +0.414 C 
ATOM     17  O   UNL     1      -1.067   9.923  27.296  0.00  0.00    -0.240 OA
ATOM     18  O   UNL     1      -1.973  10.545  25.478  0.00  0.00    -0.240 OA
ENDBRANCH   7  16
BRANCH   9  19
ATOM     19  O   UNL     1      -5.748   9.345  28.500  0.00  0.00    -0.390 OA
ATOM     20  H   UNL     1      -6.056  10.214  28.765  0.00  0.00    +0.210 HD
ENDBRANCH   9  19
BRANCH   7  21
ATOM     21  O   UNL     1      -1.866   7.271  26.476  0.00  0.00    -0.343 OA
ATOM     22  C   UNL     1      -2.510   6.007  26.178  0.00  0.00    +0.198 C 
ENDBRANCH   7  21
ENDBRANCH   4   5
BRANCH   4  23
ATOM     23  O   UNL     1      -5.883  10.297  23.155  0.00  0.00    -0.387 OA
ATOM     24  H   UNL     1      -5.292  10.942  22.760  0.00  0.00    +0.210 HD
ENDBRANCH   4  23
ENDBRANCH   1   4
BRANCH   1  25
ATOM     25  C   UNL     1      -6.607   7.747  22.074  0.00  0.00    +0.141 C 
BRANCH  25  28
ATOM     26  C   UNL     1      -5.980   8.304  19.750  0.00  0.00    +0.401 C 
ATOM     27  O   UNL     1      -7.088   8.025  19.285  0.00  0.00    -0.226 OA
ATOM     28  N   UNL     1      -5.666   8.198  21.042  0.00  0.00    -0.279 N 
ATOM     29  H   UNL     1      -4.727   8.441  21.326  0.00  0.00    +0.152 HD
BRANCH  26  30
ATOM     30  O   UNL     1      -4.954   8.768  18.869  0.00  0.00    -0.444 OA
BRANCH  30  31
ATOM     31  C   UNL     1      -5.215  10.125  18.504  0.00  0.00    +0.292 C 
BRANCH  31  33
ATOM     32  N   UNL     1      -4.041  10.997  20.511  0.00  0.00    -0.131 NA
ATOM     33  C   UNL     1      -5.133  11.009  19.684  0.00  0.00    +0.120 A 
ATOM     34  C   UNL     1      -6.005  11.990  20.104  0.00  0.00    +0.137 A 
ATOM     35  N   UNL     1      -5.300  12.653  21.069  0.00  0.00    -0.251 N 
ATOM     36  N   UNL     1      -4.167  11.995  21.376  0.00  0.00    -0.065 NA
BRANCH  35  37
ATOM     37  C   UNL     1      -5.478  14.030  21.486  0.00  0.00    +0.149 C 
BRANCH  37  38
ATOM     38  C   UNL     1      -4.559  14.503  22.633  0.00  0.00    +0.021 C 
BRANCH  38  39
ATOM     39  C   UNL     1      -5.098  14.153  24.035  0.00  0.00    +0.125 C 
BRANCH  39  40
ATOM     40  C   UNL     1      -4.232  13.195  24.827  0.00  0.00    +0.305 C 
ATOM     41  O   UNL     1      -4.509  12.752  25.930  0.00  0.00    -0.251 OA
BRANCH  40  42
ATOM     42  O   UNL     1      -3.128  12.810  24.161  0.00  0.00    -0.481 OA
ATOM     43  H   UNL     1      -3.156  11.911  23.786  0.00  0.00    +0.295 HD
ENDBRANCH  40  42
ENDBRANCH  39  40
ENDBRANCH  38  39
BRANCH  38  44
ATOM     44  C   UNL     1      -4.262  16.021  22.455  0.00  0.00    +0.009 C 
BRANCH  44  45
ATOM     45  C   UNL     1      -5.494  16.931  22.265  0.00  0.00    -0.017 C 
ATOM     46  C   UNL     1      -5.797  17.764  23.512  0.00  0.00    +0.007 C 
ATOM     47  C   UNL     1      -5.289  17.872  21.073  0.00  0.00    +0.007 C 
ENDBRANCH  44  45
ENDBRANCH  38  44
ENDBRANCH  37  38
ENDBRANCH  35  37
ENDBRANCH  31  33
ENDBRANCH  30  31
ENDBRANCH  26  30
ENDBRANCH  25  28
ENDBRANCH   1  25
TORSDOF 20
