REMARK VINA RESULT:    -4.442      6.399     13.719
REMARK INTER + INTRA:         -10.913
REMARK INTER:                  -8.578
REMARK INTRA:                  -2.335
REMARK UNBOUND:                -2.966
REMARK  Name = lig_assembled_89.pdb
REMARK  19 active torsions:
REMARK  status: ('A' for Active; 'I' for Inactive)
REMARK    1  A    between atoms: _2  and  _12
REMARK    2  A    between atoms: _5  and  _20
REMARK    3  A    between atoms: _7  and  _29
REMARK    4  A    between atoms: _9  and  _10
REMARK    5  A    between atoms: _9  and  _29
REMARK    6  A    between atoms: _20  and  _21
REMARK    7  A    between atoms: _20  and  _22
REMARK    8  A    between atoms: _25  and  _45
REMARK    9  A    between atoms: _27  and  _33
REMARK   10  A    between atoms: _28  and  _32
REMARK   11  A    between atoms: _32  and  _33
REMARK   12  A    between atoms: _35  and  _36
REMARK   13  A    between atoms: _37  and  _38
REMARK   14  A    between atoms: _39  and  _41
REMARK   15  A    between atoms: _41  and  _42
REMARK   16  A    between atoms: _41  and  _43
REMARK   17  A    between atoms: _43  and  _44
REMARK   18  A    between atoms: _43  and  _45
REMARK   19  A    between atoms: _46  and  _48
REMARK                            x       y       z     vdW  Elec       q    Type
REMARK                         _______ _______ _______ _____ _____    ______ ____
ROOT
ATOM      1  C   UNL     1      -2.219   9.568  26.419  0.00  0.00    +0.401 C 
ATOM      2  O   UNL     1      -1.988  10.275  25.436  0.00  0.00    -0.226 OA
ATOM      3  N   UNL     1      -2.708  10.030  27.571  0.00  0.00    -0.279 N 
ATOM      4  H   UNL     1      -2.873   9.370  28.318  0.00  0.00    +0.152 HD
ENDROOT
BRANCH   3   5
ATOM      5  C   UNL     1      -3.019  11.444  27.815  0.00  0.00    +0.141 C 
BRANCH   5   6
ATOM      6  C   UNL     1      -4.467  11.640  28.252  0.00  0.00    +0.163 C 
BRANCH   6   7
ATOM      7  O   UNL     1      -5.210  10.427  28.050  0.00  0.00    -0.388 OA
ATOM      8  H   UNL     1      -4.967  10.038  27.207  0.00  0.00    +0.210 HD
ENDBRANCH   6   7
BRANCH   6   9
ATOM      9  C   UNL     1      -4.505  12.070  29.728  0.00  0.00    +0.175 C 
BRANCH   9  10
ATOM     10  C   UNL     1      -4.182  10.907  30.677  0.00  0.00    +0.176 C 
ATOM     11  O   UNL     1      -5.381  10.094  30.813  0.00  0.00    -0.332 OA
ATOM     12  C   UNL     1      -5.231   8.870  31.605  0.00  0.00    +0.277 C 
ATOM     13  C   UNL     1      -4.660   9.198  33.006  0.00  0.00    +0.110 C 
ATOM     14  C   UNL     1      -3.402  10.087  32.915  0.00  0.00    +0.143 C 
ATOM     15  C   UNL     1      -3.669  11.331  32.066  0.00  0.00    +0.133 C 
BRANCH  15  16
ATOM     16  N   UNL     1      -2.440  12.125  31.914  0.00  0.00    -0.308 N 
ATOM     17  H   UNL     1      -1.659  11.699  31.434  0.00  0.00    +0.149 HD
ATOM     18  C   UNL     1      -2.288  13.372  32.369  0.00  0.00    +0.210 C 
ATOM     19  C   UNL     1      -3.487  13.983  33.119  0.00  0.00    +0.109 C 
ATOM     20  O   UNL     1      -1.252  14.019  32.215  0.00  0.00    -0.276 OA
ENDBRANCH  15  16
BRANCH  12  21
ATOM     21  C   UNL     1      -4.300   7.868  30.891  0.00  0.00    +0.414 C 
ATOM     22  O   UNL     1      -4.239   7.845  29.662  0.00  0.00    -0.240 OA
ATOM     23  O   UNL     1      -3.611   7.082  31.543  0.00  0.00    -0.240 OA
ENDBRANCH  12  21
BRANCH  14  24
ATOM     24  O   UNL     1      -3.000  10.489  34.225  0.00  0.00    -0.390 OA
ATOM     25  H   UNL     1      -3.197   9.788  34.850  0.00  0.00    +0.210 HD
ENDBRANCH  14  24
BRANCH  12  26
ATOM     26  O   UNL     1      -6.546   8.280  31.773  0.00  0.00    -0.343 OA
ATOM     27  C   UNL     1      -7.294   8.769  32.915  0.00  0.00    +0.198 C 
ENDBRANCH  12  26
ENDBRANCH   9  10
BRANCH   9  28
ATOM     28  O   UNL     1      -5.793  12.630  30.049  0.00  0.00    -0.387 OA
ATOM     29  H   UNL     1      -6.123  12.233  30.859  0.00  0.00    +0.210 HD
ENDBRANCH   9  28
ENDBRANCH   6   9
ENDBRANCH   5   6
ENDBRANCH   3   5
BRANCH   1  30
ATOM     30  O   UNL     1      -1.960   8.164  26.342  0.00  0.00    -0.444 OA
BRANCH  30  31
ATOM     31  C   UNL     1      -3.147   7.439  26.676  0.00  0.00    +0.292 C 
BRANCH  31  33
ATOM     32  N   UNL     1      -5.436   7.882  25.876  0.00  0.00    -0.131 NA
ATOM     33  C   UNL     1      -4.140   7.565  25.596  0.00  0.00    +0.121 A 
ATOM     34  C   UNL     1      -3.996   7.431  24.236  0.00  0.00    +0.145 A 
ATOM     35  N   UNL     1      -5.244   7.705  23.710  0.00  0.00    -0.199 N 
ATOM     36  N   UNL     1      -6.094   7.973  24.728  0.00  0.00    -0.059 NA
BRANCH  35  37
ATOM     37  C   UNL     1      -5.562   7.793  22.323  0.00  0.00    +0.186 A 
ATOM     38  C   UNL     1      -5.477   8.870  21.465  0.00  0.00    +0.158 A 
ATOM     39  C   UNL     1      -5.181  10.256  21.658  0.00  0.00    +0.280 A 
ATOM     40  O   UNL     1      -5.276  10.801  22.750  0.00  0.00    -0.265 OA
ATOM     41  N   UNL     1      -4.803  10.958  20.496  0.00  0.00    -0.302 N 
ATOM     42  C   UNL     1      -5.148  10.441  19.191  0.00  0.00    +0.069 A 
ATOM     43  C   UNL     1      -5.052  11.209  18.021  0.00  0.00    +0.028 A 
ATOM     44  C   UNL     1      -5.443  10.691  16.779  0.00  0.00    +0.002 A 
ATOM     45  C   UNL     1      -5.929   9.393  16.675  0.00  0.00    +0.002 A 
ATOM     46  C   UNL     1      -6.024   8.598  17.813  0.00  0.00    +0.028 A 
ATOM     47  C   UNL     1      -5.645   9.126  19.056  0.00  0.00    +0.072 A 
ATOM     48  N   UNL     1      -5.738   8.353  20.224  0.00  0.00    -0.291 N 
ATOM     49  C   UNL     1      -6.076   7.035  20.393  0.00  0.00    +0.207 A 
ATOM     50  N   UNL     1      -5.970   6.657  21.649  0.00  0.00    -0.216 NA
BRANCH  41  51
ATOM     51  C   UNL     1      -4.240  12.319  20.660  0.00  0.00    +0.085 C 
ATOM     52  C   UNL     1      -2.906  12.349  21.433  0.00  0.00    +0.030 C 
ATOM     53  C   UNL     1      -5.246  13.278  21.294  0.00  0.00    +0.030 C 
ENDBRANCH  41  51
ENDBRANCH  35  37
ENDBRANCH  31  33
ENDBRANCH  30  31
ENDBRANCH   1  30
TORSDOF 15
