REMARK VINA RESULT:    -5.165      3.011     10.293
REMARK INTER + INTRA:         -11.321
REMARK INTER:                  -8.661
REMARK INTRA:                  -2.660
REMARK UNBOUND:                -2.381
REMARK  Name = lig_assembled_7.pdb
REMARK  19 active torsions:
REMARK  status: ('A' for Active; 'I' for Inactive)
REMARK    1  A    between atoms: _2  and  _9
REMARK    2  A    between atoms: _4  and  _21
REMARK    3  A    between atoms: _5  and  _16
REMARK    4  A    between atoms: _6  and  _7
REMARK    5  A    between atoms: _6  and  _21
REMARK    6  A    between atoms: _10  and  _11
REMARK    7  A    between atoms: _13  and  _14
REMARK    8  A    between atoms: _17  and  _37
REMARK    9  A    between atoms: _19  and  _25
REMARK   10  A    between atoms: _20  and  _24
REMARK   11  A    between atoms: _24  and  _25
REMARK   12  A    between atoms: _27  and  _28
REMARK   13  A    between atoms: _29  and  _30
REMARK   14  A    between atoms: _31  and  _33
REMARK   15  A    between atoms: _33  and  _34
REMARK   16  A    between atoms: _33  and  _35
REMARK   17  A    between atoms: _35  and  _36
REMARK   18  A    between atoms: _35  and  _37
REMARK   19  A    between atoms: _38  and  _40
REMARK                            x       y       z     vdW  Elec       q    Type
REMARK                         _______ _______ _______ _____ _____    ______ ____
ROOT
ATOM      1  C   UNL     1      -5.333   8.277  25.150  0.00  0.00    +0.163 C 
ENDROOT
BRANCH   1   2
ATOM      2  O   UNL     1      -6.043   8.908  26.228  0.00  0.00    -0.388 OA
ATOM      3  H   UNL     1      -6.783   8.355  26.492  0.00  0.00    +0.210 HD
ENDBRANCH   1   2
BRANCH   1   4
ATOM      4  C   UNL     1      -3.851   8.170  25.494  0.00  0.00    +0.141 C 
BRANCH   4   7
ATOM      5  C   UNL     1      -2.550   8.220  27.594  0.00  0.00    +0.401 C 
ATOM      6  O   UNL     1      -1.749   7.356  27.230  0.00  0.00    -0.226 OA
ATOM      7  N   UNL     1      -3.567   8.656  26.850  0.00  0.00    -0.279 N 
ATOM      8  H   UNL     1      -4.176   9.361  27.240  0.00  0.00    +0.152 HD
BRANCH   5   9
ATOM      9  O   UNL     1      -2.402   8.801  28.893  0.00  0.00    -0.444 OA
BRANCH   9  10
ATOM     10  C   UNL     1      -3.633   8.685  29.611  0.00  0.00    +0.292 C 
BRANCH  10  12
ATOM     11  N   UNL     1      -4.670  10.070  31.367  0.00  0.00    -0.131 NA
ATOM     12  C   UNL     1      -4.022   9.991  30.173  0.00  0.00    +0.121 A 
ATOM     13  C   UNL     1      -3.834  11.269  29.684  0.00  0.00    +0.143 A 
ATOM     14  N   UNL     1      -4.434  12.105  30.602  0.00  0.00    -0.219 N 
ATOM     15  N   UNL     1      -4.889  11.347  31.632  0.00  0.00    -0.060 NA
BRANCH  14  16
ATOM     16  C   UNL     1      -4.591  13.529  30.576  0.00  0.00    +0.073 A 
ATOM     17  C   UNL     1      -3.588  14.354  31.170  0.00  0.00    -0.024 A 
ATOM     18  C   UNL     1      -3.733  15.758  31.148  0.00  0.00    +0.008 A 
ATOM     19  C   UNL     1      -4.833  16.367  30.549  0.00  0.00    -0.050 A 
ATOM     20  C   UNL     1      -4.955  17.861  30.541  0.00  0.00    +0.044 C 
ATOM     21  C   UNL     1      -5.807  15.559  29.969  0.00  0.00    +0.008 A 
ATOM     22  C   UNL     1      -2.313  13.837  31.799  0.00  0.00    +0.046 C 
ATOM     23  C   UNL     1      -5.724  14.147  29.987  0.00  0.00    -0.024 A 
ATOM     24  C   UNL     1      -6.941  13.462  29.419  0.00  0.00    +0.046 C 
ENDBRANCH  14  16
ENDBRANCH  10  12
ENDBRANCH   9  10
ENDBRANCH   5   9
ENDBRANCH   4   7
ENDBRANCH   1   4
BRANCH   1  25
ATOM     25  C   UNL     1      -5.501   9.070  23.842  0.00  0.00    +0.175 C 
BRANCH  25  26
ATOM     26  C   UNL     1      -4.722  10.393  23.865  0.00  0.00    +0.176 C 
ATOM     27  O   UNL     1      -5.145  11.141  25.038  0.00  0.00    -0.332 OA
ATOM     28  C   UNL     1      -4.426  12.395  25.284  0.00  0.00    +0.277 C 
ATOM     29  C   UNL     1      -4.486  13.306  24.034  0.00  0.00    +0.110 C 
ATOM     30  C   UNL     1      -4.076  12.546  22.755  0.00  0.00    +0.143 C 
ATOM     31  C   UNL     1      -4.883  11.257  22.600  0.00  0.00    +0.133 C 
BRANCH  31  32
ATOM     32  N   UNL     1      -4.423  10.499  21.425  0.00  0.00    -0.308 N 
ATOM     33  H   UNL     1      -3.483  10.130  21.441  0.00  0.00    +0.149 HD
ATOM     34  C   UNL     1      -5.167  10.268  20.340  0.00  0.00    +0.210 C 
ATOM     35  C   UNL     1      -6.586  10.866  20.337  0.00  0.00    +0.109 C 
ATOM     36  O   UNL     1      -4.760   9.617  19.377  0.00  0.00    -0.276 OA
ENDBRANCH  31  32
BRANCH  28  37
ATOM     37  C   UNL     1      -2.953  12.119  25.650  0.00  0.00    +0.414 C 
ATOM     38  O   UNL     1      -2.676  11.474  26.661  0.00  0.00    -0.240 OA
ATOM     39  O   UNL     1      -2.043  12.540  24.936  0.00  0.00    -0.240 OA
ENDBRANCH  28  37
BRANCH  30  40
ATOM     40  O   UNL     1      -4.290  13.376  21.612  0.00  0.00    -0.390 OA
ATOM     41  H   UNL     1      -3.446  13.700  21.289  0.00  0.00    +0.210 HD
ENDBRANCH  30  40
BRANCH  28  42
ATOM     42  O   UNL     1      -5.082  13.080  26.381  0.00  0.00    -0.343 OA
ATOM     43  C   UNL     1      -6.092  14.043  25.986  0.00  0.00    +0.198 C 
ENDBRANCH  28  42
ENDBRANCH  25  26
BRANCH  25  44
ATOM     44  O   UNL     1      -6.898   9.319  23.588  0.00  0.00    -0.387 OA
ATOM     45  H   UNL     1      -7.003  10.196  23.212  0.00  0.00    +0.210 HD
ENDBRANCH  25  44
ENDBRANCH   1  25
TORSDOF 14
