REMARK VINA RESULT:    -4.220      2.297      3.136
REMARK INTER + INTRA:         -10.879
REMARK INTER:                  -7.859
REMARK INTRA:                  -3.019
REMARK UNBOUND:                -2.835
REMARK  Name = lig_assembled_13.pdb
REMARK  20 active torsions:
REMARK  status: ('A' for Active; 'I' for Inactive)
REMARK    1  A    between atoms: _2  and  _9
REMARK    2  A    between atoms: _4  and  _18
REMARK    3  A    between atoms: _5  and  _11
REMARK    4  A    between atoms: _6  and  _7
REMARK    5  A    between atoms: _6  and  _18
REMARK    6  A    between atoms: _9  and  _10
REMARK    7  A    between atoms: _10  and  _12
REMARK    8  A    between atoms: _11  and  _12
REMARK    9  A    between atoms: _14  and  _34
REMARK   10  A    between atoms: _16  and  _22
REMARK   11  A    between atoms: _17  and  _21
REMARK   12  A    between atoms: _21  and  _22
REMARK   13  A    between atoms: _24  and  _25
REMARK   14  A    between atoms: _26  and  _27
REMARK   15  A    between atoms: _28  and  _30
REMARK   16  A    between atoms: _30  and  _31
REMARK   17  A    between atoms: _30  and  _32
REMARK   18  A    between atoms: _32  and  _33
REMARK   19  A    between atoms: _32  and  _34
REMARK   20  A    between atoms: _35  and  _37
REMARK                            x       y       z     vdW  Elec       q    Type
REMARK                         _______ _______ _______ _____ _____    ______ ____
ROOT
ATOM      1  C   UNL     1      -3.060  11.610  26.073  0.00  0.00    +0.163 C 
ENDROOT
BRANCH   1   2
ATOM      2  O   UNL     1      -1.996  12.190  25.301  0.00  0.00    -0.388 OA
ATOM      3  H   UNL     1      -1.662  12.970  25.751  0.00  0.00    +0.210 HD
ENDBRANCH   1   2
BRANCH   1   4
ATOM      4  C   UNL     1      -4.140  11.010  25.157  0.00  0.00    +0.175 C 
BRANCH   4   5
ATOM      5  C   UNL     1      -5.103  12.079  24.620  0.00  0.00    +0.176 C 
ATOM      6  O   UNL     1      -4.371  12.903  23.671  0.00  0.00    -0.332 OA
ATOM      7  C   UNL     1      -5.163  13.920  22.972  0.00  0.00    +0.277 C 
ATOM      8  C   UNL     1      -5.902  14.824  23.989  0.00  0.00    +0.110 C 
ATOM      9  C   UNL     1      -6.668  13.992  25.038  0.00  0.00    +0.143 C 
ATOM     10  C   UNL     1      -5.751  12.964  25.701  0.00  0.00    +0.133 C 
BRANCH  10  11
ATOM     11  N   UNL     1      -6.512  12.121  26.636  0.00  0.00    -0.308 N 
ATOM     12  H   UNL     1      -7.159  11.450  26.246  0.00  0.00    +0.149 HD
ATOM     13  C   UNL     1      -6.404  12.184  27.966  0.00  0.00    +0.210 C 
ATOM     14  C   UNL     1      -5.429  13.234  28.529  0.00  0.00    +0.109 C 
ATOM     15  O   UNL     1      -7.044  11.454  28.724  0.00  0.00    -0.276 OA
ENDBRANCH  10  11
BRANCH   7  16
ATOM     16  C   UNL     1      -6.190  13.260  22.028  0.00  0.00    +0.414 C 
ATOM     17  O   UNL     1      -5.925  12.195  21.470  0.00  0.00    -0.240 OA
ATOM     18  O   UNL     1      -7.282  13.791  21.824  0.00  0.00    -0.240 OA
ENDBRANCH   7  16
BRANCH   7  19
ATOM     19  O   UNL     1      -4.253  14.746  22.201  0.00  0.00    -0.343 OA
ATOM     20  C   UNL     1      -4.560  16.163  22.205  0.00  0.00    +0.198 C 
ENDBRANCH   7  19
BRANCH   9  21
ATOM     21  O   UNL     1      -7.206  14.857  26.039  0.00  0.00    -0.390 OA
ATOM     22  H   UNL     1      -7.976  14.446  26.438  0.00  0.00    +0.210 HD
ENDBRANCH   9  21
ENDBRANCH   4   5
BRANCH   4  23
ATOM     23  O   UNL     1      -4.875   9.988  25.859  0.00  0.00    -0.387 OA
ATOM     24  H   UNL     1      -4.475   9.132  25.690  0.00  0.00    +0.210 HD
ENDBRANCH   4  23
ENDBRANCH   1   4
BRANCH   1  25
ATOM     25  C   UNL     1      -2.508  10.523  26.989  0.00  0.00    +0.141 C 
BRANCH  25  28
ATOM     26  C   UNL     1      -3.689   9.736  29.012  0.00  0.00    +0.401 C 
ATOM     27  O   UNL     1      -4.012   8.654  28.516  0.00  0.00    -0.226 OA
ATOM     28  N   UNL     1      -2.991  10.672  28.368  0.00  0.00    -0.279 N 
ATOM     29  H   UNL     1      -2.783  11.531  28.856  0.00  0.00    +0.152 HD
BRANCH  26  30
ATOM     30  O   UNL     1      -4.080  10.028  30.356  0.00  0.00    -0.444 OA
BRANCH  30  31
ATOM     31  C   UNL     1      -2.918  10.306  31.141  0.00  0.00    +0.292 C 
BRANCH  31  33
ATOM     32  N   UNL     1      -1.893  12.259  32.264  0.00  0.00    -0.131 NA
ATOM     33  C   UNL     1      -2.993  11.665  31.708  0.00  0.00    +0.120 A 
ATOM     34  C   UNL     1      -4.062  12.523  31.796  0.00  0.00    +0.137 A 
ATOM     35  N   UNL     1      -3.566  13.596  32.477  0.00  0.00    -0.241 N 
ATOM     36  N   UNL     1      -2.252  13.456  32.714  0.00  0.00    -0.065 NA
BRANCH  35  37
ATOM     37  C   UNL     1      -4.246  14.819  32.841  0.00  0.00    +0.265 C 
BRANCH  37  38
ATOM     38  C   UNL     1      -3.722  16.003  32.082  0.00  0.00    +0.329 C 
ATOM     39  O   UNL     1      -3.156  16.979  32.555  0.00  0.00    -0.249 OA
BRANCH  38  40
ATOM     40  O   UNL     1      -4.070  15.876  30.766  0.00  0.00    -0.464 OA
BRANCH  40  41
ATOM     41  C   UNL     1      -5.306  16.510  30.404  0.00  0.00    +0.229 C 
ATOM     42  C   UNL     1      -4.973  17.807  29.688  0.00  0.00    +0.048 C 
ENDBRANCH  40  41
ENDBRANCH  38  40
ENDBRANCH  37  38
ENDBRANCH  35  37
ENDBRANCH  31  33
ENDBRANCH  30  31
ENDBRANCH  26  30
ENDBRANCH  25  28
ENDBRANCH   1  25
TORSDOF 17
