REMARK VINA RESULT:    -5.030      5.160      9.569
REMARK INTER + INTRA:         -12.037
REMARK INTER:                  -9.350
REMARK INTRA:                  -2.687
REMARK UNBOUND:                -2.890
REMARK  Name = lig_assembled_73.pdb
REMARK  18 active torsions:
REMARK  status: ('A' for Active; 'I' for Inactive)
REMARK    1  A    between atoms: _2  and  _10
REMARK    2  A    between atoms: _3  and  _14
REMARK    3  A    between atoms: _5  and  _22
REMARK    4  A    between atoms: _7  and  _8
REMARK    5  A    between atoms: _7  and  _22
REMARK    6  A    between atoms: _13  and  _16
REMARK    7  A    between atoms: _18  and  _38
REMARK    8  A    between atoms: _20  and  _26
REMARK    9  A    between atoms: _21  and  _25
REMARK   10  A    between atoms: _25  and  _26
REMARK   11  A    between atoms: _28  and  _29
REMARK   12  A    between atoms: _30  and  _31
REMARK   13  A    between atoms: _32  and  _34
REMARK   14  A    between atoms: _34  and  _35
REMARK   15  A    between atoms: _34  and  _36
REMARK   16  A    between atoms: _36  and  _37
REMARK   17  A    between atoms: _36  and  _38
REMARK   18  A    between atoms: _39  and  _41
REMARK                            x       y       z     vdW  Elec       q    Type
REMARK                         _______ _______ _______ _____ _____    ______ ____
ROOT
ATOM      1  C   UNL     1      -3.073  12.181  23.129  0.00  0.00    +0.163 C 
ENDROOT
BRANCH   1   2
ATOM      2  O   UNL     1      -2.946  12.889  24.373  0.00  0.00    -0.388 OA
ATOM      3  H   UNL     1      -2.024  12.901  24.642  0.00  0.00    +0.210 HD
ENDBRANCH   1   2
BRANCH   1   4
ATOM      4  C   UNL     1      -3.717  10.801  23.345  0.00  0.00    +0.175 C 
BRANCH   4   5
ATOM      5  C   UNL     1      -3.727  10.393  24.825  0.00  0.00    +0.176 C 
ATOM      6  O   UNL     1      -3.107   9.082  24.932  0.00  0.00    -0.332 OA
ATOM      7  C   UNL     1      -2.932   8.573  26.296  0.00  0.00    +0.277 C 
ATOM      8  C   UNL     1      -4.283   8.576  27.052  0.00  0.00    +0.110 C 
ATOM      9  C   UNL     1      -4.995   9.940  26.940  0.00  0.00    +0.143 C 
ATOM     10  C   UNL     1      -5.121  10.375  25.479  0.00  0.00    +0.133 C 
BRANCH  10  11
ATOM     11  N   UNL     1      -5.723  11.715  25.391  0.00  0.00    -0.308 N 
ATOM     12  H   UNL     1      -5.235  12.481  25.833  0.00  0.00    +0.149 HD
ATOM     13  C   UNL     1      -6.871  11.985  24.764  0.00  0.00    +0.210 C 
ATOM     14  C   UNL     1      -7.604  10.791  24.123  0.00  0.00    +0.109 C 
ATOM     15  O   UNL     1      -7.344  13.120  24.693  0.00  0.00    -0.276 OA
ENDBRANCH  10  11
BRANCH   7  16
ATOM     16  C   UNL     1      -1.905   9.426  27.071  0.00  0.00    +0.414 C 
ATOM     17  O   UNL     1      -0.921   9.887  26.494  0.00  0.00    -0.240 OA
ATOM     18  O   UNL     1      -2.062   9.652  28.271  0.00  0.00    -0.240 OA
ENDBRANCH   7  16
BRANCH   9  19
ATOM     19  O   UNL     1      -6.298   9.853  27.518  0.00  0.00    -0.390 OA
ATOM     20  H   UNL     1      -6.329   9.112  28.129  0.00  0.00    +0.210 HD
ENDBRANCH   9  19
BRANCH   7  21
ATOM     21  O   UNL     1      -2.461   7.204  26.206  0.00  0.00    -0.343 OA
ATOM     22  C   UNL     1      -2.790   6.367  27.344  0.00  0.00    +0.198 C 
ENDBRANCH   7  21
ENDBRANCH   4   5
BRANCH   4  23
ATOM     23  O   UNL     1      -3.031   9.805  22.560  0.00  0.00    -0.387 OA
ATOM     24  H   UNL     1      -3.610   9.053  22.419  0.00  0.00    +0.210 HD
ENDBRANCH   4  23
ENDBRANCH   1   4
BRANCH   1  25
ATOM     25  C   UNL     1      -3.920  12.991  22.152  0.00  0.00    +0.141 C 
BRANCH  25  28
ATOM     26  C   UNL     1      -6.162  12.631  21.177  0.00  0.00    +0.401 C 
ATOM     27  O   UNL     1      -6.536  13.790  21.372  0.00  0.00    -0.226 OA
ATOM     28  N   UNL     1      -4.957  12.170  21.516  0.00  0.00    -0.279 N 
ATOM     29  H   UNL     1      -4.746  11.201  21.323  0.00  0.00    +0.152 HD
BRANCH  26  30
ATOM     30  O   UNL     1      -7.059  11.707  20.555  0.00  0.00    -0.444 OA
BRANCH  30  31
ATOM     31  C   UNL     1      -7.097  11.952  19.147  0.00  0.00    +0.292 C 
BRANCH  31  33
ATOM     32  N   UNL     1      -5.610   9.976  19.059  0.00  0.00    -0.131 NA
ATOM     33  C   UNL     1      -6.140  11.074  18.447  0.00  0.00    +0.121 A 
ATOM     34  C   UNL     1      -5.635  11.165  17.171  0.00  0.00    +0.143 A 
ATOM     35  N   UNL     1      -4.796  10.082  17.043  0.00  0.00    -0.220 N 
ATOM     36  N   UNL     1      -4.795   9.378  18.200  0.00  0.00    -0.060 NA
BRANCH  35  37
ATOM     37  C   UNL     1      -4.014   9.689  15.926  0.00  0.00    +0.074 A 
ATOM     38  C   UNL     1      -3.382   8.433  15.925  0.00  0.00    +0.032 A 
ATOM     39  C   UNL     1      -2.597   8.028  14.836  0.00  0.00    +0.054 A 
ATOM     40  C   UNL     1      -2.433   8.873  13.741  0.00  0.00    +0.195 A 
ATOM     41  C   UNL     1      -3.064  10.117  13.748  0.00  0.00    +0.316 A 
ATOM     42  C   UNL     1      -3.859  10.538  14.823  0.00  0.00    +0.116 A 
BRANCH  41  43
ATOM     43  N   UNL     1      -2.906  11.024  12.629  0.00  0.00    +0.083 N 
ATOM     44  O   UNL     1      -1.757  11.389  12.345  0.00  0.00    +0.042 OA
ATOM     45  O   UNL     1      -3.946  11.437  12.097  0.00  0.00    -0.576 OA
ENDBRANCH  41  43
BRANCH  40  46
ATOM     46  O   UNL     1      -1.688   8.470  12.675  0.00  0.00    -0.501 OA
ATOM     47  H   UNL     1      -1.673   9.166  11.995  0.00  0.00    +0.292 HD
ENDBRANCH  40  46
ENDBRANCH  35  37
ENDBRANCH  31  33
ENDBRANCH  30  31
ENDBRANCH  26  30
ENDBRANCH  25  28
ENDBRANCH   1  25
TORSDOF 16
