REMARK VINA RESULT:    -4.735      2.502      5.422
REMARK INTER + INTRA:         -11.825
REMARK INTER:                  -6.892
REMARK INTRA:                  -4.933
REMARK UNBOUND:                -2.799
REMARK  Name = lig_assembled_55.pdb
REMARK  20 active torsions:
REMARK  status: ('A' for Active; 'I' for Inactive)
REMARK    1  A    between atoms: _2  and  _10
REMARK    2  A    between atoms: _3  and  _11
REMARK    3  A    between atoms: _3  and  _38
REMARK    4  A    between atoms: _5  and  _18
REMARK    5  A    between atoms: _6  and  _38
REMARK    6  A    between atoms: _7  and  _8
REMARK    7  A    between atoms: _7  and  _18
REMARK    8  A    between atoms: _10  and  _11
REMARK    9  A    between atoms: _14  and  _34
REMARK   10  A    between atoms: _16  and  _22
REMARK   11  A    between atoms: _17  and  _21
REMARK   12  A    between atoms: _21  and  _22
REMARK   13  A    between atoms: _24  and  _25
REMARK   14  A    between atoms: _26  and  _27
REMARK   15  A    between atoms: _28  and  _30
REMARK   16  A    between atoms: _30  and  _31
REMARK   17  A    between atoms: _30  and  _32
REMARK   18  A    between atoms: _32  and  _33
REMARK   19  A    between atoms: _32  and  _34
REMARK   20  A    between atoms: _35  and  _37
REMARK                            x       y       z     vdW  Elec       q    Type
REMARK                         _______ _______ _______ _____ _____    ______ ____
ROOT
ATOM      1  C   UNL     1      -4.147   6.636  25.600  0.00  0.00    +0.163 C 
ENDROOT
BRANCH   1   2
ATOM      2  O   UNL     1      -2.784   7.061  25.440  0.00  0.00    -0.388 OA
ATOM      3  H   UNL     1      -2.331   7.010  26.286  0.00  0.00    +0.210 HD
ENDBRANCH   1   2
BRANCH   1   4
ATOM      4  C   UNL     1      -5.122   7.769  25.236  0.00  0.00    +0.175 C 
BRANCH   4   5
ATOM      5  C   UNL     1      -4.610   9.142  25.695  0.00  0.00    +0.176 C 
ATOM      6  O   UNL     1      -3.989   8.974  26.999  0.00  0.00    -0.332 OA
ATOM      7  C   UNL     1      -3.345  10.169  27.552  0.00  0.00    +0.277 C 
ATOM      8  C   UNL     1      -4.344  11.351  27.597  0.00  0.00    +0.110 C 
ATOM      9  C   UNL     1      -5.054  11.548  26.241  0.00  0.00    +0.143 C 
ATOM     10  C   UNL     1      -5.686  10.242  25.758  0.00  0.00    +0.133 C 
BRANCH  10  11
ATOM     11  N   UNL     1      -6.283  10.422  24.425  0.00  0.00    -0.308 N 
ATOM     12  H   UNL     1      -5.659  10.559  23.643  0.00  0.00    +0.149 HD
ATOM     13  C   UNL     1      -7.597  10.415  24.182  0.00  0.00    +0.210 C 
ATOM     14  C   UNL     1      -8.522  10.231  25.399  0.00  0.00    +0.109 C 
ATOM     15  O   UNL     1      -8.069  10.554  23.053  0.00  0.00    -0.276 OA
ENDBRANCH  10  11
BRANCH   7  16
ATOM     16  C   UNL     1      -2.114  10.566  26.711  0.00  0.00    +0.414 C 
ATOM     17  O   UNL     1      -1.250   9.732  26.443  0.00  0.00    -0.240 OA
ATOM     18  O   UNL     1      -1.984  11.720  26.301  0.00  0.00    -0.240 OA
ENDBRANCH   7  16
BRANCH   7  19
ATOM     19  O   UNL     1      -2.931   9.868  28.910  0.00  0.00    -0.343 OA
ATOM     20  C   UNL     1      -3.492   8.651  29.465  0.00  0.00    +0.198 C 
ENDBRANCH   7  19
BRANCH   9  21
ATOM     21  O   UNL     1      -6.070  12.543  26.370  0.00  0.00    -0.390 OA
ATOM     22  H   UNL     1      -5.664  13.393  26.558  0.00  0.00    +0.210 HD
ENDBRANCH   9  21
ENDBRANCH   4   5
BRANCH   4  23
ATOM     23  O   UNL     1      -6.421   7.507  25.804  0.00  0.00    -0.387 OA
ATOM     24  H   UNL     1      -6.399   7.682  26.748  0.00  0.00    +0.210 HD
ENDBRANCH   4  23
ENDBRANCH   1   4
BRANCH   1  25
ATOM     25  C   UNL     1      -4.422   5.423  24.717  0.00  0.00    +0.141 C 
BRANCH  25  28
ATOM     26  C   UNL     1      -4.103   6.092  22.359  0.00  0.00    +0.401 C 
ATOM     27  O   UNL     1      -2.871   6.063  22.420  0.00  0.00    -0.226 OA
ATOM     28  N   UNL     1      -4.906   5.813  23.387  0.00  0.00    -0.279 N 
ATOM     29  H   UNL     1      -5.904   5.873  23.241  0.00  0.00    +0.152 HD
BRANCH  26  30
ATOM     30  O   UNL     1      -4.729   6.447  21.124  0.00  0.00    -0.444 OA
BRANCH  30  31
ATOM     31  C   UNL     1      -5.830   7.323  21.381  0.00  0.00    +0.292 C 
BRANCH  31  33
ATOM     32  N   UNL     1      -4.406   9.217  22.088  0.00  0.00    -0.131 NA
ATOM     33  C   UNL     1      -5.403   8.731  21.283  0.00  0.00    +0.120 A 
ATOM     34  C   UNL     1      -5.855   9.743  20.465  0.00  0.00    +0.137 A 
ATOM     35  N   UNL     1      -5.109  10.822  20.834  0.00  0.00    -0.250 N 
ATOM     36  N   UNL     1      -4.237  10.501  21.808  0.00  0.00    -0.065 NA
BRANCH  35  37
ATOM     37  C   UNL     1      -5.147  12.164  20.294  0.00  0.00    +0.162 C 
BRANCH  37  38
ATOM     38  C   UNL     1      -6.119  13.097  21.025  0.00  0.00    +0.129 C 
BRANCH  38  39
ATOM     39  N   UNL     1      -6.046  12.993  22.511  0.00  0.00    -0.193 NA
ATOM     40  H   UNL     1      -5.831  12.029  22.795  0.00  0.00    +0.148 HD
BRANCH  39  41
ATOM     41  S   UNL     1      -5.086  14.136  23.292  0.00  0.00    +0.027 S 
ATOM     42  O   UNL     1      -5.817  14.563  24.465  0.00  0.00    -0.158 OA
ATOM     43  O   UNL     1      -3.752  13.589  23.395  0.00  0.00    -0.158 OA
ATOM     44  C   UNL     1      -5.091  15.469  22.115  0.00  0.00    +0.214 C 
ENDBRANCH  39  41
ENDBRANCH  38  39
ENDBRANCH  37  38
ENDBRANCH  35  37
ENDBRANCH  31  33
ENDBRANCH  30  31
ENDBRANCH  26  30
ENDBRANCH  25  28
ENDBRANCH   1  25
TORSDOF 17
