REMARK VINA RESULT:    -4.808      5.461      9.578
REMARK INTER + INTRA:         -11.964
REMARK INTER:                  -9.219
REMARK INTRA:                  -2.745
REMARK UNBOUND:                -2.799
REMARK  Name = lig_assembled_55.pdb
REMARK  20 active torsions:
REMARK  status: ('A' for Active; 'I' for Inactive)
REMARK    1  A    between atoms: _2  and  _10
REMARK    2  A    between atoms: _3  and  _11
REMARK    3  A    between atoms: _3  and  _38
REMARK    4  A    between atoms: _5  and  _18
REMARK    5  A    between atoms: _6  and  _38
REMARK    6  A    between atoms: _7  and  _8
REMARK    7  A    between atoms: _7  and  _18
REMARK    8  A    between atoms: _10  and  _11
REMARK    9  A    between atoms: _14  and  _34
REMARK   10  A    between atoms: _16  and  _22
REMARK   11  A    between atoms: _17  and  _21
REMARK   12  A    between atoms: _21  and  _22
REMARK   13  A    between atoms: _24  and  _25
REMARK   14  A    between atoms: _26  and  _27
REMARK   15  A    between atoms: _28  and  _30
REMARK   16  A    between atoms: _30  and  _31
REMARK   17  A    between atoms: _30  and  _32
REMARK   18  A    between atoms: _32  and  _33
REMARK   19  A    between atoms: _32  and  _34
REMARK   20  A    between atoms: _35  and  _37
REMARK                            x       y       z     vdW  Elec       q    Type
REMARK                         _______ _______ _______ _____ _____    ______ ____
ROOT
ATOM      1  C   UNL     1      -5.172  10.163  18.444  0.00  0.00    +0.163 C 
ENDROOT
BRANCH   1   2
ATOM      2  O   UNL     1      -4.838   9.419  19.627  0.00  0.00    -0.388 OA
ATOM      3  H   UNL     1      -5.579   8.861  19.875  0.00  0.00    +0.210 HD
ENDBRANCH   1   2
BRANCH   1   4
ATOM      4  C   UNL     1      -5.860   9.263  17.404  0.00  0.00    +0.175 C 
BRANCH   4   5
ATOM      5  C   UNL     1      -4.882   8.773  16.325  0.00  0.00    +0.176 C 
ATOM      6  O   UNL     1      -3.981   7.813  16.942  0.00  0.00    -0.332 OA
ATOM      7  C   UNL     1      -3.037   7.156  16.033  0.00  0.00    +0.277 C 
ATOM      8  C   UNL     1      -2.220   8.210  15.246  0.00  0.00    +0.110 C 
ATOM      9  C   UNL     1      -3.135   9.271  14.598  0.00  0.00    +0.143 C 
ATOM     10  C   UNL     1      -4.077   9.888  15.632  0.00  0.00    +0.133 C 
BRANCH  10  11
ATOM     11  N   UNL     1      -5.001  10.834  14.988  0.00  0.00    -0.308 N 
ATOM     12  H   UNL     1      -5.710  10.457  14.374  0.00  0.00    +0.149 HD
ATOM     13  C   UNL     1      -4.965  12.158  15.160  0.00  0.00    +0.210 C 
ATOM     14  C   UNL     1      -3.857  12.703  16.081  0.00  0.00    +0.109 C 
ATOM     15  O   UNL     1      -5.762  12.925  14.618  0.00  0.00    -0.276 OA
ENDBRANCH  10  11
BRANCH   7  16
ATOM     16  C   UNL     1      -3.781   6.236  15.043  0.00  0.00    +0.414 C 
ATOM     17  O   UNL     1      -3.478   6.233  13.851  0.00  0.00    -0.240 OA
ATOM     18  O   UNL     1      -4.685   5.497  15.436  0.00  0.00    -0.240 OA
ENDBRANCH   7  16
BRANCH   7  19
ATOM     19  O   UNL     1      -2.117   6.369  16.833  0.00  0.00    -0.343 OA
ATOM     20  C   UNL     1      -0.753   6.337  16.344  0.00  0.00    +0.198 C 
ENDBRANCH   7  19
BRANCH   9  21
ATOM     21  O   UNL     1      -2.337  10.302  14.014  0.00  0.00    -0.390 OA
ATOM     22  H   UNL     1      -2.122  10.958  14.681  0.00  0.00    +0.210 HD
ENDBRANCH   9  21
ENDBRANCH   4   5
BRANCH   4  23
ATOM     23  O   UNL     1      -6.963   9.962  16.793  0.00  0.00    -0.387 OA
ATOM     24  H   UNL     1      -6.673  10.360  15.969  0.00  0.00    +0.210 HD
ENDBRANCH   4  23
ENDBRANCH   1   4
BRANCH   1  25
ATOM     25  C   UNL     1      -6.093  11.325  18.802  0.00  0.00    +0.141 C 
BRANCH  25  28
ATOM     26  C   UNL     1      -6.210  12.915  20.689  0.00  0.00    +0.401 C 
ATOM     27  O   UNL     1      -7.443  12.917  20.733  0.00  0.00    -0.226 OA
ATOM     28  N   UNL     1      -5.497  12.204  19.815  0.00  0.00    -0.279 N 
ATOM     29  H   UNL     1      -4.490  12.275  19.851  0.00  0.00    +0.152 HD
BRANCH  26  30
ATOM     30  O   UNL     1      -5.480  13.718  21.621  0.00  0.00    -0.444 OA
BRANCH  30  31
ATOM     31  C   UNL     1      -4.195  13.135  21.849  0.00  0.00    +0.292 C 
BRANCH  31  33
ATOM     32  N   UNL     1      -3.672  10.719  21.928  0.00  0.00    -0.131 NA
ATOM     33  C   UNL     1      -4.336  11.797  22.453  0.00  0.00    +0.120 A 
ATOM     34  C   UNL     1      -5.075  11.384  23.540  0.00  0.00    +0.137 A 
ATOM     35  N   UNL     1      -4.835  10.045  23.612  0.00  0.00    -0.250 N 
ATOM     36  N   UNL     1      -3.989   9.650  22.643  0.00  0.00    -0.065 NA
BRANCH  35  37
ATOM     37  C   UNL     1      -5.343   9.095  24.578  0.00  0.00    +0.162 C 
BRANCH  37  38
ATOM     38  C   UNL     1      -4.423   8.886  25.785  0.00  0.00    +0.129 C 
BRANCH  38  39
ATOM     39  N   UNL     1      -2.975   9.067  25.473  0.00  0.00    -0.193 NA
ATOM     40  H   UNL     1      -2.825   9.087  24.456  0.00  0.00    +0.148 HD
BRANCH  39  41
ATOM     41  S   UNL     1      -2.192  10.325  26.275  0.00  0.00    +0.027 S 
ATOM     42  O   UNL     1      -1.029   9.750  26.915  0.00  0.00    -0.158 OA
ATOM     43  O   UNL     1      -2.072  11.427  25.348  0.00  0.00    -0.158 OA
ATOM     44  C   UNL     1      -3.377  10.736  27.535  0.00  0.00    +0.214 C 
ENDBRANCH  39  41
ENDBRANCH  38  39
ENDBRANCH  37  38
ENDBRANCH  35  37
ENDBRANCH  31  33
ENDBRANCH  30  31
ENDBRANCH  26  30
ENDBRANCH  25  28
ENDBRANCH   1  25
TORSDOF 17
