REMARK VINA RESULT:    -4.958      4.550      8.931
REMARK INTER + INTRA:         -11.906
REMARK INTER:                  -8.767
REMARK INTRA:                  -3.139
REMARK UNBOUND:                -2.890
REMARK  Name = lig_assembled_73.pdb
REMARK  18 active torsions:
REMARK  status: ('A' for Active; 'I' for Inactive)
REMARK    1  A    between atoms: _2  and  _10
REMARK    2  A    between atoms: _3  and  _14
REMARK    3  A    between atoms: _5  and  _22
REMARK    4  A    between atoms: _7  and  _8
REMARK    5  A    between atoms: _7  and  _22
REMARK    6  A    between atoms: _13  and  _16
REMARK    7  A    between atoms: _18  and  _38
REMARK    8  A    between atoms: _20  and  _26
REMARK    9  A    between atoms: _21  and  _25
REMARK   10  A    between atoms: _25  and  _26
REMARK   11  A    between atoms: _28  and  _29
REMARK   12  A    between atoms: _30  and  _31
REMARK   13  A    between atoms: _32  and  _34
REMARK   14  A    between atoms: _34  and  _35
REMARK   15  A    between atoms: _34  and  _36
REMARK   16  A    between atoms: _36  and  _37
REMARK   17  A    between atoms: _36  and  _38
REMARK   18  A    between atoms: _39  and  _41
REMARK                            x       y       z     vdW  Elec       q    Type
REMARK                         _______ _______ _______ _____ _____    ______ ____
ROOT
ATOM      1  C   UNL     1      -3.003  11.998  23.044  0.00  0.00    +0.163 C 
ENDROOT
BRANCH   1   2
ATOM      2  O   UNL     1      -2.286  12.268  24.260  0.00  0.00    -0.388 OA
ATOM      3  H   UNL     1      -2.821  12.005  25.013  0.00  0.00    +0.210 HD
ENDBRANCH   1   2
BRANCH   1   4
ATOM      4  C   UNL     1      -3.844  10.716  23.174  0.00  0.00    +0.175 C 
BRANCH   4   5
ATOM      5  C   UNL     1      -3.990  10.266  24.635  0.00  0.00    +0.176 C 
ATOM      6  O   UNL     1      -2.942   9.297  24.911  0.00  0.00    -0.332 OA
ATOM      7  C   UNL     1      -2.859   8.831  26.299  0.00  0.00    +0.277 C 
ATOM      8  C   UNL     1      -4.226   8.272  26.765  0.00  0.00    +0.110 C 
ATOM      9  C   UNL     1      -5.376   9.255  26.463  0.00  0.00    +0.143 C 
ATOM     10  C   UNL     1      -5.367   9.676  24.993  0.00  0.00    +0.133 C 
BRANCH  10  11
ATOM     11  N   UNL     1      -6.413  10.678  24.737  0.00  0.00    -0.308 N 
ATOM     12  H   UNL     1      -6.332  11.573  25.200  0.00  0.00    +0.149 HD
ATOM     13  C   UNL     1      -7.462  10.484  23.933  0.00  0.00    +0.210 C 
ATOM     14  C   UNL     1      -7.570   9.101  23.263  0.00  0.00    +0.109 C 
ATOM     15  O   UNL     1      -8.315  11.347  23.726  0.00  0.00    -0.276 OA
ENDBRANCH  10  11
BRANCH   7  16
ATOM     16  C   UNL     1      -2.425   9.978  27.236  0.00  0.00    +0.414 C 
ATOM     17  O   UNL     1      -2.691   9.932  28.436  0.00  0.00    -0.240 OA
ATOM     18  O   UNL     1      -1.810  10.948  26.791  0.00  0.00    -0.240 OA
ENDBRANCH   7  16
BRANCH   9  19
ATOM     19  O   UNL     1      -6.628   8.639  26.768  0.00  0.00    -0.390 OA
ATOM     20  H   UNL     1      -7.316   9.309  26.799  0.00  0.00    +0.210 HD
ENDBRANCH   9  19
BRANCH   7  21
ATOM     21  O   UNL     1      -1.883   7.759  26.355  0.00  0.00    -0.343 OA
ATOM     22  C   UNL     1      -2.421   6.459  26.703  0.00  0.00    +0.198 C 
ENDBRANCH   7  21
ENDBRANCH   4   5
BRANCH   4  23
ATOM     23  O   UNL     1      -3.262   9.660  22.385  0.00  0.00    -0.387 OA
ATOM     24  H   UNL     1      -3.717   8.834  22.569  0.00  0.00    +0.210 HD
ENDBRANCH   4  23
ENDBRANCH   1   4
BRANCH   1  25
ATOM     25  C   UNL     1      -3.915  13.173  22.705  0.00  0.00    +0.141 C 
BRANCH  25  28
ATOM     26  C   UNL     1      -5.913  13.305  21.257  0.00  0.00    +0.401 C 
ATOM     27  O   UNL     1      -6.619  13.832  22.120  0.00  0.00    -0.226 OA
ATOM     28  N   UNL     1      -4.640  12.958  21.446  0.00  0.00    -0.279 N 
ATOM     29  H   UNL     1      -4.145  12.522  20.681  0.00  0.00    +0.152 HD
BRANCH  26  30
ATOM     30  O   UNL     1      -6.474  13.037  19.969  0.00  0.00    -0.444 OA
BRANCH  30  31
ATOM     31  C   UNL     1      -7.194  11.803  20.010  0.00  0.00    +0.292 C 
BRANCH  31  33
ATOM     32  N   UNL     1      -5.579   9.954  20.320  0.00  0.00    -0.131 NA
ATOM     33  C   UNL     1      -6.359  10.704  19.489  0.00  0.00    +0.121 A 
ATOM     34  C   UNL     1      -6.207  10.250  18.200  0.00  0.00    +0.143 A 
ATOM     35  N   UNL     1      -5.320   9.203  18.294  0.00  0.00    -0.220 N 
ATOM     36  N   UNL     1      -4.951   9.045  19.587  0.00  0.00    -0.060 NA
BRANCH  35  37
ATOM     37  C   UNL     1      -4.810   8.373  17.262  0.00  0.00    +0.074 A 
ATOM     38  C   UNL     1      -5.137   7.005  17.241  0.00  0.00    +0.032 A 
ATOM     39  C   UNL     1      -4.637   6.165  16.237  0.00  0.00    +0.054 A 
ATOM     40  C   UNL     1      -3.805   6.681  15.246  0.00  0.00    +0.195 A 
ATOM     41  C   UNL     1      -3.485   8.038  15.271  0.00  0.00    +0.316 A 
ATOM     42  C   UNL     1      -3.981   8.897  16.262  0.00  0.00    +0.116 A 
BRANCH  41  43
ATOM     43  N   UNL     1      -2.614   8.603  14.260  0.00  0.00    +0.083 N 
ATOM     44  O   UNL     1      -2.942   8.457  13.075  0.00  0.00    +0.042 OA
ATOM     45  O   UNL     1      -1.556   9.111  14.660  0.00  0.00    -0.576 OA
ENDBRANCH  41  43
BRANCH  40  46
ATOM     46  O   UNL     1      -3.337   5.868  14.258  0.00  0.00    -0.501 OA
ATOM     47  H   UNL     1      -4.041   5.267  13.959  0.00  0.00    +0.292 HD
ENDBRANCH  40  46
ENDBRANCH  35  37
ENDBRANCH  31  33
ENDBRANCH  30  31
ENDBRANCH  26  30
ENDBRANCH  25  28
ENDBRANCH   1  25
TORSDOF 16
