REMARK VINA RESULT:    -4.679      1.164      1.368
REMARK INTER + INTRA:         -12.013
REMARK INTER:                  -8.710
REMARK INTRA:                  -3.303
REMARK UNBOUND:                -3.505
REMARK  Name = lig_assembled_22.pdb
REMARK  20 active torsions:
REMARK  status: ('A' for Active; 'I' for Inactive)
REMARK    1  A    between atoms: _2  and  _9
REMARK    2  A    between atoms: _4  and  _18
REMARK    3  A    between atoms: _5  and  _9
REMARK    4  A    between atoms: _5  and  _12
REMARK    5  A    between atoms: _6  and  _7
REMARK    6  A    between atoms: _6  and  _18
REMARK    7  A    between atoms: _9  and  _10
REMARK    8  A    between atoms: _9  and  _11
REMARK    9  A    between atoms: _14  and  _34
REMARK   10  A    between atoms: _16  and  _22
REMARK   11  A    between atoms: _17  and  _21
REMARK   12  A    between atoms: _21  and  _22
REMARK   13  A    between atoms: _24  and  _25
REMARK   14  A    between atoms: _26  and  _27
REMARK   15  A    between atoms: _28  and  _30
REMARK   16  A    between atoms: _30  and  _31
REMARK   17  A    between atoms: _30  and  _32
REMARK   18  A    between atoms: _32  and  _33
REMARK   19  A    between atoms: _32  and  _34
REMARK   20  A    between atoms: _35  and  _37
REMARK                            x       y       z     vdW  Elec       q    Type
REMARK                         _______ _______ _______ _____ _____    ______ ____
ROOT
ATOM      1  C   UNL     1      -3.171  11.582  25.283  0.00  0.00    +0.163 C 
ENDROOT
BRANCH   1   2
ATOM      2  O   UNL     1      -2.077  10.650  25.289  0.00  0.00    -0.388 OA
ATOM      3  H   UNL     1      -1.976  10.281  26.170  0.00  0.00    +0.210 HD
ENDBRANCH   1   2
BRANCH   1   4
ATOM      4  C   UNL     1      -2.768  12.854  24.543  0.00  0.00    +0.141 C 
BRANCH   4   7
ATOM      5  C   UNL     1      -4.421  12.855  22.706  0.00  0.00    +0.401 C 
ATOM      6  O   UNL     1      -5.396  12.926  23.458  0.00  0.00    -0.226 OA
ATOM      7  N   UNL     1      -3.157  12.811  23.128  0.00  0.00    -0.279 N 
ATOM      8  H   UNL     1      -2.425  12.743  22.435  0.00  0.00    +0.152 HD
BRANCH   5   9
ATOM      9  O   UNL     1      -4.635  12.813  21.293  0.00  0.00    -0.444 OA
BRANCH   9  10
ATOM     10  C   UNL     1      -3.804  11.803  20.714  0.00  0.00    +0.292 C 
BRANCH  10  12
ATOM     11  N   UNL     1      -3.035   9.898  22.085  0.00  0.00    -0.131 NA
ATOM     12  C   UNL     1      -4.035  10.508  21.381  0.00  0.00    +0.120 A 
ATOM     13  C   UNL     1      -5.165   9.721  21.435  0.00  0.00    +0.138 A 
ATOM     14  N   UNL     1      -4.790   8.644  22.189  0.00  0.00    -0.235 N 
ATOM     15  N   UNL     1      -3.504   8.761  22.571  0.00  0.00    -0.064 NA
BRANCH  14  16
ATOM     16  C   UNL     1      -5.566   7.464  22.573  0.00  0.00    +0.155 C 
ATOM     17  C   UNL     1      -4.713   6.176  22.559  0.00  0.00    +0.048 C 
ATOM     18  C   UNL     1      -6.726   7.289  21.576  0.00  0.00    +0.048 C 
BRANCH  16  19
ATOM     19  C   UNL     1      -6.124   7.631  23.989  0.00  0.00    +0.332 C 
ATOM     20  O   UNL     1      -7.109   7.039  24.415  0.00  0.00    -0.248 OA
BRANCH  19  21
ATOM     21  O   UNL     1      -5.450   8.501  24.779  0.00  0.00    -0.479 OA
ATOM     22  H   UNL     1      -4.688   8.139  25.272  0.00  0.00    +0.295 HD
ENDBRANCH  19  21
ENDBRANCH  16  19
ENDBRANCH  14  16
ENDBRANCH  10  12
ENDBRANCH   9  10
ENDBRANCH   5   9
ENDBRANCH   4   7
ENDBRANCH   1   4
BRANCH   1  23
ATOM     23  C   UNL     1      -3.601  11.936  26.717  0.00  0.00    +0.175 C 
BRANCH  23  24
ATOM     24  C   UNL     1      -3.364  10.775  27.694  0.00  0.00    +0.176 C 
ATOM     25  O   UNL     1      -4.003   9.591  27.145  0.00  0.00    -0.332 OA
ATOM     26  C   UNL     1      -3.791   8.350  27.896  0.00  0.00    +0.277 C 
ATOM     27  C   UNL     1      -4.212   8.533  29.374  0.00  0.00    +0.110 C 
ATOM     28  C   UNL     1      -3.582   9.799  29.993  0.00  0.00    +0.143 C 
ATOM     29  C   UNL     1      -3.861  11.029  29.129  0.00  0.00    +0.133 C 
BRANCH  29  30
ATOM     30  N   UNL     1      -3.183  12.212  29.682  0.00  0.00    -0.308 N 
ATOM     31  H   UNL     1      -2.173  12.219  29.683  0.00  0.00    +0.149 HD
ATOM     32  C   UNL     1      -3.815  13.277  30.183  0.00  0.00    +0.210 C 
ATOM     33  C   UNL     1      -5.355  13.225  30.191  0.00  0.00    +0.109 C 
ATOM     34  O   UNL     1      -3.221  14.260  30.626  0.00  0.00    -0.276 OA
ENDBRANCH  29  30
BRANCH  26  35
ATOM     35  C   UNL     1      -2.312   7.917  27.831  0.00  0.00    +0.414 C 
ATOM     36  O   UNL     1      -1.652   8.116  26.812  0.00  0.00    -0.240 OA
ATOM     37  O   UNL     1      -1.778   7.371  28.797  0.00  0.00    -0.240 OA
ENDBRANCH  26  35
BRANCH  26  38
ATOM     38  O   UNL     1      -4.627   7.320  27.307  0.00  0.00    -0.343 OA
ATOM     39  C   UNL     1      -5.424   6.563  28.253  0.00  0.00    +0.198 C 
ENDBRANCH  26  38
BRANCH  28  40
ATOM     40  O   UNL     1      -4.113  10.012  31.301  0.00  0.00    -0.390 OA
ATOM     41  H   UNL     1      -5.070  10.072  31.253  0.00  0.00    +0.210 HD
ENDBRANCH  28  40
ENDBRANCH  23  24
BRANCH  23  42
ATOM     42  O   UNL     1      -4.988  12.327  26.737  0.00  0.00    -0.387 OA
ATOM     43  H   UNL     1      -5.211  12.671  27.606  0.00  0.00    +0.210 HD
ENDBRANCH  23  42
ENDBRANCH   1  23
TORSDOF 16
