REMARK VINA RESULT:    -4.485      6.248     10.225
REMARK INTER + INTRA:         -10.676
REMARK INTER:                  -8.005
REMARK INTRA:                  -2.671
REMARK UNBOUND:                -2.913
REMARK  Name = lig_assembled_93.pdb
REMARK  16 active torsions:
REMARK  status: ('A' for Active; 'I' for Inactive)
REMARK    1  A    between atoms: _2  and  _9
REMARK    2  A    between atoms: _4  and  _18
REMARK    3  A    between atoms: _6  and  _7
REMARK    4  A    between atoms: _6  and  _18
REMARK    5  A    between atoms: _14  and  _34
REMARK    6  A    between atoms: _16  and  _22
REMARK    7  A    between atoms: _17  and  _21
REMARK    8  A    between atoms: _21  and  _22
REMARK    9  A    between atoms: _24  and  _25
REMARK   10  A    between atoms: _26  and  _27
REMARK   11  A    between atoms: _28  and  _30
REMARK   12  A    between atoms: _30  and  _31
REMARK   13  A    between atoms: _30  and  _32
REMARK   14  A    between atoms: _32  and  _33
REMARK   15  A    between atoms: _32  and  _34
REMARK   16  A    between atoms: _35  and  _37
REMARK                            x       y       z     vdW  Elec       q    Type
REMARK                         _______ _______ _______ _____ _____    ______ ____
ROOT
ATOM      1  C   UNL     1      -2.873  10.307  14.390  0.00  0.00    +0.163 C 
ENDROOT
BRANCH   1   2
ATOM      2  O   UNL     1      -2.048  10.206  13.217  0.00  0.00    -0.388 OA
ATOM      3  H   UNL     1      -2.537   9.766  12.518  0.00  0.00    +0.210 HD
ENDBRANCH   1   2
BRANCH   1   4
ATOM      4  C   UNL     1      -3.337   8.920  14.822  0.00  0.00    +0.141 C 
BRANCH   4   7
ATOM      5  C   UNL     1      -4.579   7.939  16.720  0.00  0.00    +0.401 C 
ATOM      6  O   UNL     1      -4.956   6.952  16.085  0.00  0.00    -0.226 OA
ATOM      7  N   UNL     1      -3.824   8.912  16.206  0.00  0.00    -0.279 N 
ATOM      8  H   UNL     1      -3.574   9.687  16.804  0.00  0.00    +0.152 HD
BRANCH   5   9
ATOM      9  O   UNL     1      -4.966   8.074  18.090  0.00  0.00    -0.444 OA
BRANCH   9  10
ATOM     10  C   UNL     1      -5.855   9.185  18.229  0.00  0.00    +0.292 C 
BRANCH  10  12
ATOM     11  N   UNL     1      -4.589  11.276  18.566  0.00  0.00    -0.131 NA
ATOM     12  C   UNL     1      -5.255  10.216  19.095  0.00  0.00    +0.121 A 
ATOM     13  C   UNL     1      -5.245  10.326  20.466  0.00  0.00    +0.143 A 
ATOM     14  N   UNL     1      -4.563  11.499  20.741  0.00  0.00    -0.219 N 
ATOM     15  N   UNL     1      -4.172  12.038  19.566  0.00  0.00    -0.060 NA
BRANCH  14  16
ATOM     16  C   UNL     1      -4.304  12.092  22.017  0.00  0.00    +0.080 A 
ATOM     17  C   UNL     1      -3.187  11.616  22.745  0.00  0.00    +0.029 A 
ATOM     18  C   UNL     1      -2.863  12.119  24.008  0.00  0.00    +0.002 A 
ATOM     19  C   UNL     1      -3.641  13.112  24.579  0.00  0.00    +0.001 A 
ATOM     20  C   UNL     1      -4.742  13.604  23.882  0.00  0.00    +0.016 A 
ATOM     21  C   UNL     1      -5.084  13.109  22.605  0.00  0.00    +0.039 A 
ATOM     22  I   UNL     1      -6.798  14.059  21.807  0.00  0.00    -0.042 I 
ENDBRANCH  14  16
ENDBRANCH  10  12
ENDBRANCH   9  10
ENDBRANCH   5   9
ENDBRANCH   4   7
ENDBRANCH   1   4
BRANCH   1  23
ATOM     23  C   UNL     1      -4.098  11.199  14.125  0.00  0.00    +0.175 C 
BRANCH  23  24
ATOM     24  C   UNL     1      -3.797  12.307  13.105  0.00  0.00    +0.176 C 
ATOM     25  O   UNL     1      -2.521  12.906  13.460  0.00  0.00    -0.332 OA
ATOM     26  C   UNL     1      -2.016  13.920  12.529  0.00  0.00    +0.277 C 
ATOM     27  C   UNL     1      -3.073  15.030  12.312  0.00  0.00    +0.110 C 
ATOM     28  C   UNL     1      -4.456  14.439  11.964  0.00  0.00    +0.143 C 
ATOM     29  C   UNL     1      -4.882  13.394  12.995  0.00  0.00    +0.133 C 
BRANCH  29  30
ATOM     30  N   UNL     1      -6.159  12.776  12.606  0.00  0.00    -0.308 N 
ATOM     31  H   UNL     1      -6.169  12.194  11.780  0.00  0.00    +0.149 HD
ATOM     32  C   UNL     1      -7.306  12.935  13.272  0.00  0.00    +0.210 C 
ATOM     33  C   UNL     1      -7.263  13.849  14.511  0.00  0.00    +0.109 C 
ATOM     34  O   UNL     1      -8.358  12.393  12.931  0.00  0.00    -0.276 OA
ENDBRANCH  29  30
BRANCH  26  35
ATOM     35  C   UNL     1      -1.651  13.283  11.172  0.00  0.00    +0.414 C 
ATOM     36  O   UNL     1      -1.009  12.235  11.131  0.00  0.00    -0.240 OA
ATOM     37  O   UNL     1      -1.999  13.818  10.118  0.00  0.00    -0.240 OA
ENDBRANCH  26  35
BRANCH  28  38
ATOM     38  O   UNL     1      -5.429  15.483  11.922  0.00  0.00    -0.390 OA
ATOM     39  H   UNL     1      -5.677  15.655  11.011  0.00  0.00    +0.210 HD
ENDBRANCH  28  38
BRANCH  26  40
ATOM     40  O   UNL     1      -0.835  14.523  13.118  0.00  0.00    -0.343 OA
ATOM     41  C   UNL     1      -0.404  15.760  12.497  0.00  0.00    +0.198 C 
ENDBRANCH  26  40
ENDBRANCH  23  24
BRANCH  23  42
ATOM     42  O   UNL     1      -4.568  11.776  15.360  0.00  0.00    -0.387 OA
ATOM     43  H   UNL     1      -5.248  12.427  15.171  0.00  0.00    +0.210 HD
ENDBRANCH  23  42
ENDBRANCH   1  23
TORSDOF 14
