REMARK VINA RESULT:    -4.376      2.819      5.579
REMARK INTER + INTRA:         -11.894
REMARK INTER:                  -7.589
REMARK INTRA:                  -4.305
REMARK UNBOUND:                -2.785
REMARK  Name = lig_assembled_54.pdb
REMARK  24 active torsions:
REMARK  status: ('A' for Active; 'I' for Inactive)
REMARK    1  A    between atoms: _2  and  _9
REMARK    2  A    between atoms: _4  and  _21
REMARK    3  A    between atoms: _5  and  _14
REMARK    4  A    between atoms: _6  and  _7
REMARK    5  A    between atoms: _6  and  _21
REMARK    6  A    between atoms: _9  and  _10
REMARK    7  A    between atoms: _10  and  _11
REMARK    8  A    between atoms: _11  and  _15
REMARK    9  A    between atoms: _11  and  _16
REMARK   10  A    between atoms: _12  and  _13
REMARK   11  A    between atoms: _12  and  _16
REMARK   12  A    between atoms: _14  and  _15
REMARK   13  A    between atoms: _17  and  _37
REMARK   14  A    between atoms: _19  and  _25
REMARK   15  A    between atoms: _20  and  _24
REMARK   16  A    between atoms: _24  and  _25
REMARK   17  A    between atoms: _27  and  _28
REMARK   18  A    between atoms: _29  and  _30
REMARK   19  A    between atoms: _31  and  _33
REMARK   20  A    between atoms: _33  and  _34
REMARK   21  A    between atoms: _33  and  _35
REMARK   22  A    between atoms: _35  and  _36
REMARK   23  A    between atoms: _35  and  _37
REMARK   24  A    between atoms: _38  and  _40
REMARK                            x       y       z     vdW  Elec       q    Type
REMARK                         _______ _______ _______ _____ _____    ______ ____
ROOT
ATOM      1  C   UNL     1      -3.149  11.735  24.604  0.00  0.00    +0.163 C 
ENDROOT
BRANCH   1   2
ATOM      2  O   UNL     1      -1.991  11.585  25.440  0.00  0.00    -0.388 OA
ATOM      3  H   UNL     1      -1.197  11.640  24.902  0.00  0.00    +0.210 HD
ENDBRANCH   1   2
BRANCH   1   4
ATOM      4  C   UNL     1      -4.426  11.310  25.350  0.00  0.00    +0.175 C 
BRANCH   4   5
ATOM      5  C   UNL     1      -4.155  10.191  26.367  0.00  0.00    +0.176 C 
ATOM      6  O   UNL     1      -3.245   9.238  25.751  0.00  0.00    -0.332 OA
ATOM      7  C   UNL     1      -2.788   8.148  26.618  0.00  0.00    +0.277 C 
ATOM      8  C   UNL     1      -3.997   7.398  27.228  0.00  0.00    +0.110 C 
ATOM      9  C   UNL     1      -5.009   8.373  27.867  0.00  0.00    +0.143 C 
ATOM     10  C   UNL     1      -5.414   9.467  26.879  0.00  0.00    +0.133 C 
BRANCH  10  11
ATOM     11  N   UNL     1      -6.310  10.439  27.526  0.00  0.00    -0.308 N 
ATOM     12  H   UNL     1      -5.919  11.039  28.238  0.00  0.00    +0.149 HD
ATOM     13  C   UNL     1      -7.606  10.579  27.233  0.00  0.00    +0.210 C 
ATOM     14  C   UNL     1      -8.177   9.631  26.161  0.00  0.00    +0.109 C 
ATOM     15  O   UNL     1      -8.329  11.412  27.781  0.00  0.00    -0.276 OA
ENDBRANCH  10  11
BRANCH   7  16
ATOM     16  C   UNL     1      -1.892   8.689  27.751  0.00  0.00    +0.414 C 
ATOM     17  O   UNL     1      -2.021   8.266  28.900  0.00  0.00    -0.240 OA
ATOM     18  O   UNL     1      -1.041   9.548  27.518  0.00  0.00    -0.240 OA
ENDBRANCH   7  16
BRANCH   9  19
ATOM     19  O   UNL     1      -6.173   7.657  28.279  0.00  0.00    -0.390 OA
ATOM     20  H   UNL     1      -6.934   8.242  28.258  0.00  0.00    +0.210 HD
ENDBRANCH   9  19
BRANCH   7  21
ATOM     21  O   UNL     1      -2.034   7.213  25.804  0.00  0.00    -0.343 OA
ATOM     22  C   UNL     1      -1.836   5.905  26.397  0.00  0.00    +0.198 C 
ENDBRANCH   7  21
ENDBRANCH   4   5
BRANCH   4  23
ATOM     23  O   UNL     1      -5.435  10.892  24.409  0.00  0.00    -0.387 OA
ATOM     24  H   UNL     1      -6.080  10.338  24.856  0.00  0.00    +0.210 HD
ENDBRANCH   4  23
ENDBRANCH   1   4
BRANCH   1  25
ATOM     25  C   UNL     1      -3.283  13.186  24.153  0.00  0.00    +0.141 C 
BRANCH  25  28
ATOM     26  C   UNL     1      -5.115  14.584  23.262  0.00  0.00    +0.401 C 
ATOM     27  O   UNL     1      -4.378  15.250  22.532  0.00  0.00    -0.226 OA
ATOM     28  N   UNL     1      -4.687  13.603  24.058  0.00  0.00    -0.279 N 
ATOM     29  H   UNL     1      -5.367  13.120  24.627  0.00  0.00    +0.152 HD
BRANCH  26  30
ATOM     30  O   UNL     1      -6.517  14.864  23.276  0.00  0.00    -0.444 OA
BRANCH  30  31
ATOM     31  C   UNL     1      -6.995  14.981  21.933  0.00  0.00    +0.292 C 
BRANCH  31  33
ATOM     32  N   UNL     1      -7.253  13.420  20.027  0.00  0.00    -0.131 NA
ATOM     33  C   UNL     1      -7.276  13.642  21.379  0.00  0.00    +0.120 A 
ATOM     34  C   UNL     1      -7.568  12.460  22.025  0.00  0.00    +0.137 A 
ATOM     35  N   UNL     1      -7.672  11.551  21.016  0.00  0.00    -0.251 N 
ATOM     36  N   UNL     1      -7.489  12.132  19.817  0.00  0.00    -0.065 NA
BRANCH  35  37
ATOM     37  C   UNL     1      -7.880  10.121  21.113  0.00  0.00    +0.150 C 
BRANCH  37  38
ATOM     38  C   UNL     1      -6.675   9.340  20.612  0.00  0.00    +0.084 C 
BRANCH  38  39
ATOM     39  C   UNL     1      -5.623   9.078  21.697  0.00  0.00    +0.252 C 
BRANCH  39  40
ATOM     40  O   UNL     1      -4.708  10.175  21.772  0.00  0.00    -0.352 OA
BRANCH  40  41
ATOM     41  C   UNL     1      -4.244  10.634  20.504  0.00  0.00    +0.159 C 
ATOM     42  C   UNL     1      -3.900  12.106  20.614  0.00  0.00    +0.034 C 
ENDBRANCH  40  41
ENDBRANCH  39  40
BRANCH  39  43
ATOM     43  O   UNL     1      -4.920   7.882  21.340  0.00  0.00    -0.352 OA
BRANCH  43  44
ATOM     44  C   UNL     1      -5.040   6.861  22.332  0.00  0.00    +0.159 C 
ATOM     45  C   UNL     1      -5.537   7.479  23.623  0.00  0.00    +0.034 C 
ENDBRANCH  43  44
ENDBRANCH  39  43
ENDBRANCH  38  39
ENDBRANCH  37  38
ENDBRANCH  35  37
ENDBRANCH  31  33
ENDBRANCH  30  31
ENDBRANCH  26  30
ENDBRANCH  25  28
ENDBRANCH   1  25
TORSDOF 20
