REMARK VINA RESULT:    -4.994      3.519      6.545
REMARK INTER + INTRA:         -11.169
REMARK INTER:                  -8.622
REMARK INTRA:                  -2.546
REMARK UNBOUND:                -2.233
REMARK  Name = lig_assembled_61.pdb
REMARK  17 active torsions:
REMARK  status: ('A' for Active; 'I' for Inactive)
REMARK    1  A    between atoms: _2  and  _9
REMARK    2  A    between atoms: _4  and  _17
REMARK    3  A    between atoms: _6  and  _7
REMARK    4  A    between atoms: _6  and  _17
REMARK    5  A    between atoms: _9  and  _10
REMARK    6  A    between atoms: _13  and  _33
REMARK    7  A    between atoms: _15  and  _21
REMARK    8  A    between atoms: _16  and  _20
REMARK    9  A    between atoms: _20  and  _21
REMARK   10  A    between atoms: _23  and  _24
REMARK   11  A    between atoms: _25  and  _26
REMARK   12  A    between atoms: _27  and  _29
REMARK   13  A    between atoms: _29  and  _30
REMARK   14  A    between atoms: _29  and  _31
REMARK   15  A    between atoms: _31  and  _32
REMARK   16  A    between atoms: _31  and  _33
REMARK   17  A    between atoms: _34  and  _36
REMARK                            x       y       z     vdW  Elec       q    Type
REMARK                         _______ _______ _______ _____ _____    ______ ____
ROOT
ATOM      1  C   UNL     1      -3.238  11.835  25.076  0.00  0.00    +0.163 C 
ENDROOT
BRANCH   1   2
ATOM      2  O   UNL     1      -2.172  10.875  24.992  0.00  0.00    -0.388 OA
ATOM      3  H   UNL     1      -2.412  10.183  24.370  0.00  0.00    +0.210 HD
ENDBRANCH   1   2
BRANCH   1   4
ATOM      4  C   UNL     1      -2.836  13.123  24.366  0.00  0.00    +0.141 C 
BRANCH   4   7
ATOM      5  C   UNL     1      -4.811  14.059  23.212  0.00  0.00    +0.401 C 
ATOM      6  O   UNL     1      -5.299  14.540  24.238  0.00  0.00    -0.226 OA
ATOM      7  N   UNL     1      -3.666  13.376  23.181  0.00  0.00    -0.279 N 
ATOM      8  H   UNL     1      -3.351  13.013  22.293  0.00  0.00    +0.152 HD
BRANCH   5   9
ATOM      9  O   UNL     1      -5.498  14.229  21.970  0.00  0.00    -0.444 OA
BRANCH   9  10
ATOM     10  C   UNL     1      -6.367  13.114  21.749  0.00  0.00    +0.292 C 
BRANCH  10  12
ATOM     11  N   UNL     1      -4.622  11.669  20.754  0.00  0.00    -0.131 NA
ATOM     12  C   UNL     1      -5.851  12.267  20.657  0.00  0.00    +0.120 A 
ATOM     13  C   UNL     1      -6.423  11.932  19.450  0.00  0.00    +0.137 A 
ATOM     14  N   UNL     1      -5.469  11.178  18.834  0.00  0.00    -0.247 N 
ATOM     15  N   UNL     1      -4.405  10.987  19.636  0.00  0.00    -0.065 NA
BRANCH  14  16
ATOM     16  C   UNL     1      -5.511  10.577  17.513  0.00  0.00    +0.180 C 
BRANCH  16  17
ATOM     17  C   UNL     1      -5.219  11.582  16.433  0.00  0.00    -0.019 A 
ATOM     18  C   UNL     1      -3.979  12.293  16.295  0.00  0.00    +0.013 A 
ATOM     19  C   UNL     1      -3.988  13.185  15.244  0.00  0.00    +0.045 A 
ATOM     20  S   UNL     1      -5.475  13.170  14.406  0.00  0.00    -0.105 S 
ATOM     21  C   UNL     1      -6.114  11.981  15.453  0.00  0.00    +0.050 A 
ENDBRANCH  16  17
ENDBRANCH  14  16
ENDBRANCH  10  12
ENDBRANCH   9  10
ENDBRANCH   5   9
ENDBRANCH   4   7
ENDBRANCH   1   4
BRANCH   1  22
ATOM     22  C   UNL     1      -3.586  12.143  26.543  0.00  0.00    +0.175 C 
BRANCH  22  23
ATOM     23  C   UNL     1      -3.376  10.926  27.455  0.00  0.00    +0.176 C 
ATOM     24  O   UNL     1      -4.015   9.781  26.826  0.00  0.00    -0.332 OA
ATOM     25  C   UNL     1      -3.827   8.497  27.508  0.00  0.00    +0.277 C 
ATOM     26  C   UNL     1      -4.273   8.598  28.987  0.00  0.00    +0.110 C 
ATOM     27  C   UNL     1      -3.644   9.820  29.689  0.00  0.00    +0.143 C 
ATOM     28  C   UNL     1      -3.897  11.101  28.893  0.00  0.00    +0.133 C 
BRANCH  28  29
ATOM     29  N   UNL     1      -3.219  12.243  29.526  0.00  0.00    -0.308 N 
ATOM     30  H   UNL     1      -2.209  12.238  29.550  0.00  0.00    +0.149 HD
ATOM     31  C   UNL     1      -3.852  13.286  30.071  0.00  0.00    +0.210 C 
ATOM     32  C   UNL     1      -5.391  13.252  30.042  0.00  0.00    +0.109 C 
ATOM     33  O   UNL     1      -3.257  14.236  30.581  0.00  0.00    -0.276 OA
ENDBRANCH  28  29
BRANCH  25  34
ATOM     34  C   UNL     1      -2.350   8.055  27.444  0.00  0.00    +0.414 C 
ATOM     35  O   UNL     1      -1.844   7.445  28.385  0.00  0.00    -0.240 OA
ATOM     36  O   UNL     1      -1.665   8.308  26.452  0.00  0.00    -0.240 OA
ENDBRANCH  25  34
BRANCH  25  37
ATOM     37  O   UNL     1      -4.660   7.511  26.845  0.00  0.00    -0.343 OA
ATOM     38  C   UNL     1      -5.642   8.056  25.928  0.00  0.00    +0.198 C 
ENDBRANCH  25  37
BRANCH  27  39
ATOM     39  O   UNL     1      -4.197   9.962  30.998  0.00  0.00    -0.390 OA
ATOM     40  H   UNL     1      -3.576  10.431  31.560  0.00  0.00    +0.210 HD
ENDBRANCH  27  39
ENDBRANCH  22  23
BRANCH  22  41
ATOM     41  O   UNL     1      -4.946  12.611  26.643  0.00  0.00    -0.387 OA
ATOM     42  H   UNL     1      -5.363  12.219  27.413  0.00  0.00    +0.210 HD
ENDBRANCH  22  41
ENDBRANCH   1  22
TORSDOF 15
