REMARK VINA RESULT:    -4.239      2.584      4.832
REMARK INTER + INTRA:         -11.264
REMARK INTER:                  -7.486
REMARK INTRA:                  -3.778
REMARK UNBOUND:                -3.679
REMARK  Name = lig_assembled_0.pdb
REMARK  17 active torsions:
REMARK  status: ('A' for Active; 'I' for Inactive)
REMARK    1  A    between atoms: _2  and  _10
REMARK    2  A    between atoms: _5  and  _21
REMARK    3  A    between atoms: _7  and  _8
REMARK    4  A    between atoms: _7  and  _21
REMARK    5  A    between atoms: _11  and  _12
REMARK    6  A    between atoms: _17  and  _37
REMARK    7  A    between atoms: _19  and  _25
REMARK    8  A    between atoms: _20  and  _24
REMARK    9  A    between atoms: _24  and  _25
REMARK   10  A    between atoms: _27  and  _28
REMARK   11  A    between atoms: _29  and  _30
REMARK   12  A    between atoms: _31  and  _33
REMARK   13  A    between atoms: _33  and  _34
REMARK   14  A    between atoms: _33  and  _35
REMARK   15  A    between atoms: _35  and  _36
REMARK   16  A    between atoms: _35  and  _37
REMARK   17  A    between atoms: _38  and  _40
REMARK                            x       y       z     vdW  Elec       q    Type
REMARK                         _______ _______ _______ _____ _____    ______ ____
ROOT
ATOM      1  C   UNL     1      -3.018   7.812  27.389  0.00  0.00    +0.163 C 
ENDROOT
BRANCH   1   2
ATOM      2  O   UNL     1      -2.029   7.716  26.350  0.00  0.00    -0.388 OA
ATOM      3  H   UNL     1      -1.526   8.533  26.310  0.00  0.00    +0.210 HD
ENDBRANCH   1   2
BRANCH   1   4
ATOM      4  C   UNL     1      -3.333   6.425  27.938  0.00  0.00    +0.141 C 
BRANCH   4   7
ATOM      5  C   UNL     1      -3.366   6.459  30.409  0.00  0.00    +0.401 C 
ATOM      6  O   UNL     1      -2.142   6.357  30.520  0.00  0.00    -0.226 OA
ATOM      7  N   UNL     1      -4.008   6.492  29.241  0.00  0.00    -0.279 N 
ATOM      8  H   UNL     1      -5.015   6.568  29.252  0.00  0.00    +0.152 HD
BRANCH   5   9
ATOM      9  O   UNL     1      -4.166   6.544  31.591  0.00  0.00    -0.444 OA
BRANCH   9  10
ATOM     10  C   UNL     1      -3.472   7.305  32.584  0.00  0.00    +0.292 C 
BRANCH  10  12
ATOM     11  N   UNL     1      -5.145   9.105  32.805  0.00  0.00    -0.131 NA
ATOM     12  C   UNL     1      -3.870   8.723  32.514  0.00  0.00    +0.121 A 
ATOM     13  C   UNL     1      -3.125   9.839  32.202  0.00  0.00    +0.143 A 
ATOM     14  N   UNL     1      -4.019  10.885  32.224  0.00  0.00    -0.219 N 
ATOM     15  N   UNL     1      -5.216  10.420  32.678  0.00  0.00    -0.060 NA
BRANCH  14  16
ATOM     16  C   UNL     1      -3.833  12.274  31.975  0.00  0.00    +0.079 A 
ATOM     17  C   UNL     1      -3.787  12.863  30.696  0.00  0.00    +0.062 A 
ATOM     18  C   UNL     1      -3.554  14.252  30.594  0.00  0.00    +0.015 A 
ATOM     19  C   UNL     1      -3.357  15.041  31.728  0.00  0.00    +0.001 A 
ATOM     20  C   UNL     1      -3.418  14.463  32.988  0.00  0.00    +0.002 A 
ATOM     21  C   UNL     1      -3.665  13.097  33.113  0.00  0.00    +0.028 A 
BRANCH  17  22
ATOM     22  C   UNL     1      -4.152  12.155  29.437  0.00  0.00    +0.244 C 
ATOM     23  O   UNL     1      -5.288  12.162  28.990  0.00  0.00    -0.270 OA
ATOM     24  N   UNL     1      -3.151  11.515  28.756  0.00  0.00    -0.325 N 
ATOM     25  H   UNL     1      -3.398  11.080  27.875  0.00  0.00    +0.145 HD
ATOM     26  H   UNL     1      -2.186  11.475  29.050  0.00  0.00    +0.145 HD
ENDBRANCH  17  22
ENDBRANCH  14  16
ENDBRANCH  10  12
ENDBRANCH   9  10
ENDBRANCH   5   9
ENDBRANCH   4   7
ENDBRANCH   1   4
BRANCH   1  27
ATOM     27  C   UNL     1      -4.309   8.462  26.862  0.00  0.00    +0.175 C 
BRANCH  27  28
ATOM     28  C   UNL     1      -4.030   9.478  25.745  0.00  0.00    +0.176 C 
ATOM     29  O   UNL     1      -4.547  10.768  26.173  0.00  0.00    -0.332 OA
ATOM     30  C   UNL     1      -4.275  11.891  25.272  0.00  0.00    +0.277 C 
ATOM     31  C   UNL     1      -4.781  11.573  23.843  0.00  0.00    +0.110 C 
ATOM     32  C   UNL     1      -4.283  10.196  23.356  0.00  0.00    +0.143 C 
ATOM     33  C   UNL     1      -4.615   9.102  24.371  0.00  0.00    +0.133 C 
BRANCH  33  34
ATOM     34  N   UNL     1      -4.059   7.811  23.936  0.00  0.00    -0.308 N 
ATOM     35  H   UNL     1      -3.057   7.740  23.833  0.00  0.00    +0.149 HD
ATOM     36  C   UNL     1      -4.793   6.727  23.671  0.00  0.00    +0.210 C 
ATOM     37  C   UNL     1      -6.319   6.875  23.813  0.00  0.00    +0.109 C 
ATOM     38  O   UNL     1      -4.299   5.654  23.323  0.00  0.00    -0.276 OA
ENDBRANCH  33  34
BRANCH  30  39
ATOM     39  C   UNL     1      -2.765  12.203  25.226  0.00  0.00    +0.414 C 
ATOM     40  O   UNL     1      -2.303  12.900  24.324  0.00  0.00    -0.240 OA
ATOM     41  O   UNL     1      -2.009  11.759  26.091  0.00  0.00    -0.240 OA
ENDBRANCH  30  39
BRANCH  32  42
ATOM     42  O   UNL     1      -4.893   9.879  22.104  0.00  0.00    -0.390 OA
ATOM     43  H   UNL     1      -5.289   9.006  22.153  0.00  0.00    +0.210 HD
ENDBRANCH  32  42
BRANCH  30  44
ATOM     44  O   UNL     1      -4.998  13.048  25.766  0.00  0.00    -0.343 OA
ATOM     45  C   UNL     1      -5.955  13.616  24.836  0.00  0.00    +0.198 C 
ENDBRANCH  30  44
ENDBRANCH  27  28
BRANCH  27  46
ATOM     46  O   UNL     1      -5.022   9.095  27.942  0.00  0.00    -0.387 OA
ATOM     47  H   UNL     1      -5.934   9.245  27.680  0.00  0.00    +0.210 HD
ENDBRANCH  27  46
ENDBRANCH   1  27
TORSDOF 15
