REMARK VINA RESULT:    -5.317      3.342      5.194
REMARK INTER + INTRA:         -13.506
REMARK INTER:                 -10.965
REMARK INTRA:                  -2.541
REMARK UNBOUND:                -3.060
REMARK  Name = lig_assembled_37.pdb
REMARK  21 active torsions:
REMARK  status: ('A' for Active; 'I' for Inactive)
REMARK    1  A    between atoms: _2  and  _9
REMARK    2  A    between atoms: _4  and  _24
REMARK    3  A    between atoms: _6  and  _7
REMARK    4  A    between atoms: _6  and  _24
REMARK    5  A    between atoms: _9  and  _10
REMARK    6  A    between atoms: _9  and  _11
REMARK    7  A    between atoms: _11  and  _18
REMARK    8  A    between atoms: _12  and  _13
REMARK    9  A    between atoms: _12  and  _18
REMARK   10  A    between atoms: _20  and  _40
REMARK   11  A    between atoms: _22  and  _28
REMARK   12  A    between atoms: _23  and  _27
REMARK   13  A    between atoms: _27  and  _28
REMARK   14  A    between atoms: _30  and  _31
REMARK   15  A    between atoms: _32  and  _33
REMARK   16  A    between atoms: _34  and  _36
REMARK   17  A    between atoms: _36  and  _37
REMARK   18  A    between atoms: _36  and  _38
REMARK   19  A    between atoms: _38  and  _39
REMARK   20  A    between atoms: _38  and  _40
REMARK   21  A    between atoms: _41  and  _43
REMARK                            x       y       z     vdW  Elec       q    Type
REMARK                         _______ _______ _______ _____ _____    ______ ____
ROOT
ATOM      1  C   UNL     1      -2.930  13.011  24.498  0.00  0.00    +0.141 C 
ENDROOT
BRANCH   1   4
ATOM      2  C   UNL     1      -4.569  13.283  22.669  0.00  0.00    +0.401 C 
ATOM      3  O   UNL     1      -5.512  13.531  23.425  0.00  0.00    -0.226 OA
ATOM      4  N   UNL     1      -3.330  13.021  23.086  0.00  0.00    -0.279 N 
ATOM      5  H   UNL     1      -2.625  12.819  22.390  0.00  0.00    +0.152 HD
BRANCH   2   6
ATOM      6  O   UNL     1      -4.797  13.264  21.258  0.00  0.00    -0.444 OA
BRANCH   6   7
ATOM      7  C   UNL     1      -3.750  12.530  20.615  0.00  0.00    +0.292 C 
BRANCH   7   9
ATOM      8  N   UNL     1      -4.377  10.137  20.769  0.00  0.00    -0.131 NA
ATOM      9  C   UNL     1      -4.280  11.285  20.028  0.00  0.00    +0.120 A 
ATOM     10  C   UNL     1      -4.741  11.038  18.755  0.00  0.00    +0.138 A 
ATOM     11  N   UNL     1      -5.078   9.717  18.773  0.00  0.00    -0.238 N 
ATOM     12  N   UNL     1      -4.874   9.185  19.993  0.00  0.00    -0.065 NA
BRANCH  11  13
ATOM     13  C   UNL     1      -5.655   8.901  17.723  0.00  0.00    +0.214 C 
ATOM     14  C   UNL     1      -6.697   9.679  16.920  0.00  0.00    +0.045 C 
BRANCH  13  15
ATOM     15  C   UNL     1      -4.585   8.356  16.804  0.00  0.00    +0.332 C 
ATOM     16  O   UNL     1      -3.853   7.414  17.085  0.00  0.00    -0.248 OA
BRANCH  15  17
ATOM     17  O   UNL     1      -4.544   9.050  15.634  0.00  0.00    -0.458 OA
BRANCH  17  18
ATOM     18  C   UNL     1      -3.249   9.512  15.220  0.00  0.00    +0.267 C 
BRANCH  18  19
ATOM     19  C   UNL     1      -3.344  10.934  14.730  0.00  0.00    -0.010 A 
ATOM     20  C   UNL     1      -3.021  11.251  13.403  0.00  0.00    +0.007 A 
ATOM     21  C   UNL     1      -3.134  12.563  12.940  0.00  0.00    +0.000 A 
ATOM     22  C   UNL     1      -3.568  13.572  13.798  0.00  0.00    +0.000 A 
ATOM     23  C   UNL     1      -3.886  13.270  15.121  0.00  0.00    +0.000 A 
ATOM     24  C   UNL     1      -3.771  11.958  15.586  0.00  0.00    +0.007 A 
ENDBRANCH  18  19
ENDBRANCH  17  18
ENDBRANCH  15  17
ENDBRANCH  13  15
ENDBRANCH  11  13
ENDBRANCH   7   9
ENDBRANCH   6   7
ENDBRANCH   2   6
ENDBRANCH   1   4
BRANCH   1  25
ATOM     25  C   UNL     1      -3.323  11.710  25.191  0.00  0.00    +0.163 C 
BRANCH  25  26
ATOM     26  O   UNL     1      -2.214  10.797  25.187  0.00  0.00    -0.388 OA
ATOM     27  H   UNL     1      -2.525   9.913  25.399  0.00  0.00    +0.210 HD
ENDBRANCH  25  26
BRANCH  25  28
ATOM     28  C   UNL     1      -3.784  12.011  26.627  0.00  0.00    +0.175 C 
BRANCH  28  29
ATOM     29  C   UNL     1      -3.446  10.866  27.594  0.00  0.00    +0.176 C 
ATOM     30  O   UNL     1      -4.044   9.648  27.072  0.00  0.00    -0.332 OA
ATOM     31  C   UNL     1      -3.737   8.422  27.814  0.00  0.00    +0.277 C 
ATOM     32  C   UNL     1      -4.106   8.587  29.308  0.00  0.00    +0.110 C 
ATOM     33  C   UNL     1      -3.518   9.885  29.900  0.00  0.00    +0.143 C 
ATOM     34  C   UNL     1      -3.897  11.097  29.049  0.00  0.00    +0.133 C 
BRANCH  34  35
ATOM     35  N   UNL     1      -3.259  12.315  29.573  0.00  0.00    -0.308 N 
ATOM     36  H   UNL     1      -2.250  12.350  29.588  0.00  0.00    +0.149 HD
ATOM     37  C   UNL     1      -3.928  13.377  30.031  0.00  0.00    +0.210 C 
ATOM     38  C   UNL     1      -5.465  13.282  30.019  0.00  0.00    +0.109 C 
ATOM     39  O   UNL     1      -3.367  14.390  30.451  0.00  0.00    -0.276 OA
ENDBRANCH  34  35
BRANCH  31  40
ATOM     40  C   UNL     1      -2.240   8.068  27.688  0.00  0.00    +0.414 C 
ATOM     41  O   UNL     1      -1.653   7.517  28.618  0.00  0.00    -0.240 OA
ATOM     42  O   UNL     1      -1.620   8.332  26.657  0.00  0.00    -0.240 OA
ENDBRANCH  31  40
BRANCH  31  43
ATOM     43  O   UNL     1      -4.541   7.349  27.260  0.00  0.00    -0.343 OA
ATOM     44  C   UNL     1      -5.974   7.527  27.391  0.00  0.00    +0.198 C 
ENDBRANCH  31  43
BRANCH  33  45
ATOM     45  O   UNL     1      -4.006  10.073  31.229  0.00  0.00    -0.390 OA
ATOM     46  H   UNL     1      -4.605  10.823  31.248  0.00  0.00    +0.210 HD
ENDBRANCH  33  45
ENDBRANCH  28  29
BRANCH  28  47
ATOM     47  O   UNL     1      -5.200  12.278  26.649  0.00  0.00    -0.387 OA
ATOM     48  H   UNL     1      -5.513  12.423  25.753  0.00  0.00    +0.210 HD
ENDBRANCH  28  47
ENDBRANCH  25  28
ENDBRANCH   1  25
TORSDOF 18
