REMARK VINA RESULT:    -4.434      2.127      5.771
REMARK INTER + INTRA:         -12.083
REMARK INTER:                  -8.200
REMARK INTRA:                  -3.883
REMARK UNBOUND:                -3.890
REMARK  Name = lig_assembled_66.pdb
REMARK  18 active torsions:
REMARK  status: ('A' for Active; 'I' for Inactive)
REMARK    1  A    between atoms: _2  and  _10
REMARK    2  A    between atoms: _5  and  _21
REMARK    3  A    between atoms: _7  and  _8
REMARK    4  A    between atoms: _7  and  _21
REMARK    5  A    between atoms: _10  and  _11
REMARK    6  A    between atoms: _15  and  _16
REMARK    7  A    between atoms: _17  and  _37
REMARK    8  A    between atoms: _19  and  _25
REMARK    9  A    between atoms: _20  and  _24
REMARK   10  A    between atoms: _24  and  _25
REMARK   11  A    between atoms: _27  and  _28
REMARK   12  A    between atoms: _29  and  _30
REMARK   13  A    between atoms: _31  and  _33
REMARK   14  A    between atoms: _33  and  _34
REMARK   15  A    between atoms: _33  and  _35
REMARK   16  A    between atoms: _35  and  _36
REMARK   17  A    between atoms: _35  and  _37
REMARK   18  A    between atoms: _38  and  _40
REMARK                            x       y       z     vdW  Elec       q    Type
REMARK                         _______ _______ _______ _____ _____    ______ ____
ROOT
ATOM      1  C   UNL     1      -2.474  10.017  27.002  0.00  0.00    +0.163 C 
ENDROOT
BRANCH   1   2
ATOM      2  O   UNL     1      -1.281   9.975  26.202  0.00  0.00    -0.388 OA
ATOM      3  H   UNL     1      -0.891   9.099  26.255  0.00  0.00    +0.210 HD
ENDBRANCH   1   2
BRANCH   1   4
ATOM      4  C   UNL     1      -3.623   9.256  26.318  0.00  0.00    +0.175 C 
BRANCH   4   5
ATOM      5  C   UNL     1      -4.340  10.115  25.266  0.00  0.00    +0.176 C 
ATOM      6  O   UNL     1      -3.426  10.313  24.152  0.00  0.00    -0.332 OA
ATOM      7  C   UNL     1      -3.979  11.028  22.998  0.00  0.00    +0.277 C 
ATOM      8  C   UNL     1      -4.571  12.389  23.438  0.00  0.00    +0.110 C 
ATOM      9  C   UNL     1      -5.525  12.234  24.641  0.00  0.00    +0.143 C 
ATOM     10  C   UNL     1      -4.849  11.474  25.782  0.00  0.00    +0.133 C 
BRANCH  10  11
ATOM     11  N   UNL     1      -5.795  11.256  26.888  0.00  0.00    -0.308 N 
ATOM     12  H   UNL     1      -6.567  10.623  26.731  0.00  0.00    +0.149 HD
ATOM     13  C   UNL     1      -5.702  11.842  28.085  0.00  0.00    +0.210 C 
ATOM     14  C   UNL     1      -4.531  12.822  28.284  0.00  0.00    +0.109 C 
ATOM     15  O   UNL     1      -6.501  11.629  28.997  0.00  0.00    -0.276 OA
ENDBRANCH  10  11
BRANCH   7  16
ATOM     16  C   UNL     1      -5.074  10.188  22.308  0.00  0.00    +0.414 C 
ATOM     17  O   UNL     1      -6.121  10.718  21.937  0.00  0.00    -0.240 OA
ATOM     18  O   UNL     1      -4.912   8.981  22.123  0.00  0.00    -0.240 OA
ENDBRANCH   7  16
BRANCH   7  19
ATOM     19  O   UNL     1      -2.897  11.279  22.065  0.00  0.00    -0.343 OA
ATOM     20  C   UNL     1      -3.099  12.413  21.184  0.00  0.00    +0.198 C 
ENDBRANCH   7  19
BRANCH   9  21
ATOM     21  O   UNL     1      -5.927  13.523  25.106  0.00  0.00    -0.390 OA
ATOM     22  H   UNL     1      -6.661  13.428  25.718  0.00  0.00    +0.210 HD
ENDBRANCH   9  21
ENDBRANCH   4   5
BRANCH   4  23
ATOM     23  O   UNL     1      -4.565   8.789  27.304  0.00  0.00    -0.387 OA
ATOM     24  H   UNL     1      -4.099   8.564  28.112  0.00  0.00    +0.210 HD
ENDBRANCH   4  23
ENDBRANCH   1   4
BRANCH   1  25
ATOM     25  C   UNL     1      -2.205   9.408  28.374  0.00  0.00    +0.141 C 
BRANCH  25  28
ATOM     26  C   UNL     1      -3.619   9.907  30.338  0.00  0.00    +0.401 C 
ATOM     27  O   UNL     1      -4.189   8.813  30.323  0.00  0.00    -0.226 OA
ATOM     28  N   UNL     1      -2.683  10.271  29.461  0.00  0.00    -0.279 N 
ATOM     29  H   UNL     1      -2.281  11.194  29.548  0.00  0.00    +0.152 HD
BRANCH  26  30
ATOM     30  O   UNL     1      -3.970  10.859  31.345  0.00  0.00    -0.444 OA
BRANCH  30  31
ATOM     31  C   UNL     1      -2.837  11.680  31.642  0.00  0.00    +0.292 C 
BRANCH  31  33
ATOM     32  N   UNL     1      -2.523  14.058  31.023  0.00  0.00    -0.131 NA
ATOM     33  C   UNL     1      -3.232  13.101  31.698  0.00  0.00    +0.120 A 
ATOM     34  C   UNL     1      -4.301  13.696  32.330  0.00  0.00    +0.137 A 
ATOM     35  N   UNL     1      -4.220  15.006  31.954  0.00  0.00    -0.247 N 
ATOM     36  N   UNL     1      -3.138  15.223  31.183  0.00  0.00    -0.065 NA
BRANCH  35  37
ATOM     37  C   UNL     1      -5.249  16.022  32.073  0.00  0.00    +0.180 C 
BRANCH  37  38
ATOM     38  C   UNL     1      -5.795  16.478  30.743  0.00  0.00    -0.025 A 
ATOM     39  C   UNL     1      -5.593  17.796  30.309  0.00  0.00    +0.005 A 
ATOM     40  C   UNL     1      -6.021  18.204  29.043  0.00  0.00    +0.002 A 
ATOM     41  C   UNL     1      -6.676  17.303  28.203  0.00  0.00    +0.019 A 
ATOM     42  C   UNL     1      -6.917  15.996  28.635  0.00  0.00    +0.052 A 
ATOM     43  C   UNL     1      -6.476  15.585  29.900  0.00  0.00    +0.024 A 
BRANCH  42  44
ATOM     44  C   UNL     1      -7.604  15.072  27.780  0.00  0.00    +0.099 C 
ATOM     45  N   UNL     1      -8.166  14.331  27.085  0.00  0.00    -0.191 NA
ENDBRANCH  42  44
ENDBRANCH  37  38
ENDBRANCH  35  37
ENDBRANCH  31  33
ENDBRANCH  30  31
ENDBRANCH  26  30
ENDBRANCH  25  28
ENDBRANCH   1  25
TORSDOF 16
