REMARK VINA RESULT:    -5.966      5.820     10.207
REMARK INTER + INTRA:         -12.804
REMARK INTER:                  -9.901
REMARK INTRA:                  -2.903
REMARK UNBOUND:                -1.954
REMARK  Name = lig_assembled_60.pdb
REMARK  18 active torsions:
REMARK  status: ('A' for Active; 'I' for Inactive)
REMARK    1  A    between atoms: _2  and  _10
REMARK    2  A    between atoms: _3  and  _41
REMARK    3  A    between atoms: _5  and  _21
REMARK    4  A    between atoms: _7  and  _8
REMARK    5  A    between atoms: _7  and  _21
REMARK    6  A    between atoms: _13  and  _41
REMARK    7  A    between atoms: _17  and  _37
REMARK    8  A    between atoms: _19  and  _25
REMARK    9  A    between atoms: _20  and  _24
REMARK   10  A    between atoms: _24  and  _25
REMARK   11  A    between atoms: _27  and  _28
REMARK   12  A    between atoms: _29  and  _30
REMARK   13  A    between atoms: _31  and  _33
REMARK   14  A    between atoms: _33  and  _34
REMARK   15  A    between atoms: _33  and  _35
REMARK   16  A    between atoms: _35  and  _36
REMARK   17  A    between atoms: _35  and  _37
REMARK   18  A    between atoms: _38  and  _40
REMARK                            x       y       z     vdW  Elec       q    Type
REMARK                         _______ _______ _______ _____ _____    ______ ____
ROOT
ATOM      1  C   UNL     1      -5.853   7.658  22.827  0.00  0.00    +0.141 C 
ENDROOT
BRANCH   1   4
ATOM      2  C   UNL     1      -3.768   6.504  23.480  0.00  0.00    +0.401 C 
ATOM      3  O   UNL     1      -3.445   6.232  22.322  0.00  0.00    -0.226 OA
ATOM      4  N   UNL     1      -4.880   7.163  23.809  0.00  0.00    -0.279 N 
ATOM      5  H   UNL     1      -5.064   7.330  24.788  0.00  0.00    +0.152 HD
BRANCH   2   6
ATOM      6  O   UNL     1      -2.917   6.095  24.554  0.00  0.00    -0.444 OA
BRANCH   6   7
ATOM      7  C   UNL     1      -3.673   6.028  25.765  0.00  0.00    +0.292 C 
BRANCH   7   9
ATOM      8  N   UNL     1      -1.816   7.172  26.936  0.00  0.00    -0.131 NA
ATOM      9  C   UNL     1      -3.156   6.999  26.747  0.00  0.00    +0.121 A 
ATOM     10  C   UNL     1      -3.840   7.855  27.579  0.00  0.00    +0.143 A 
ATOM     11  N   UNL     1      -2.864   8.566  28.240  0.00  0.00    -0.220 N 
ATOM     12  N   UNL     1      -1.646   8.117  27.850  0.00  0.00    -0.060 NA
BRANCH  11  13
ATOM     13  C   UNL     1      -3.017   9.638  29.157  0.00  0.00    +0.067 A 
ATOM     14  C   UNL     1      -3.507  10.881  28.727  0.00  0.00    +0.030 A 
ATOM     15  C   UNL     1      -3.587  11.950  29.622  0.00  0.00    +0.030 A 
ATOM     16  C   UNL     1      -3.192  11.774  30.950  0.00  0.00    +0.105 A 
ATOM     17  C   UNL     1      -2.718  10.536  31.393  0.00  0.00    +0.030 A 
ATOM     18  C   UNL     1      -2.637   9.466  30.497  0.00  0.00    +0.030 A 
BRANCH  16  19
ATOM     19  S   UNL     1      -3.225  13.156  32.053  0.00  0.00    +0.056 S 
ATOM     20  O   UNL     1      -3.982  14.229  31.452  0.00  0.00    -0.153 OA
ATOM     21  O   UNL     1      -3.479  12.683  33.395  0.00  0.00    -0.153 OA
BRANCH  19  22
ATOM     22  N   UNL     1      -1.622  13.648  32.030  0.00  0.00    -0.204 NA
ATOM     23  H   UNL     1      -1.433  14.172  31.176  0.00  0.00    +0.144 HD
ATOM     24  H   UNL     1      -1.012  12.841  32.163  0.00  0.00    +0.144 HD
ENDBRANCH  19  22
ENDBRANCH  16  19
ENDBRANCH  11  13
ENDBRANCH   7   9
ENDBRANCH   6   7
ENDBRANCH   2   6
ENDBRANCH   1   4
BRANCH   1  25
ATOM     25  C   UNL     1      -6.668   8.826  23.374  0.00  0.00    +0.163 C 
BRANCH  25  26
ATOM     26  O   UNL     1      -6.333   9.056  24.753  0.00  0.00    -0.388 OA
ATOM     27  H   UNL     1      -5.508   8.612  24.961  0.00  0.00    +0.210 HD
ENDBRANCH  25  26
BRANCH  25  28
ATOM     28  C   UNL     1      -6.399  10.082  22.526  0.00  0.00    +0.175 C 
BRANCH  28  29
ATOM     29  C   UNL     1      -5.027  10.702  22.830  0.00  0.00    +0.176 C 
ATOM     30  O   UNL     1      -5.157  11.505  24.035  0.00  0.00    -0.332 OA
ATOM     31  C   UNL     1      -3.913  12.094  24.541  0.00  0.00    +0.277 C 
ATOM     32  C   UNL     1      -3.217  12.922  23.433  0.00  0.00    +0.110 C 
ATOM     33  C   UNL     1      -3.085  12.120  22.121  0.00  0.00    +0.143 C 
ATOM     34  C   UNL     1      -4.437  11.550  21.688  0.00  0.00    +0.133 C 
BRANCH  34  35
ATOM     35  N   UNL     1      -4.283  10.716  20.486  0.00  0.00    -0.308 N 
ATOM     36  H   UNL     1      -3.616   9.958  20.520  0.00  0.00    +0.149 HD
ATOM     37  C   UNL     1      -4.967  10.896  19.352  0.00  0.00    +0.210 C 
ATOM     38  C   UNL     1      -5.955  12.077  19.324  0.00  0.00    +0.109 C 
ATOM     39  O   UNL     1      -4.828  10.173  18.365  0.00  0.00    -0.276 OA
ENDBRANCH  34  35
BRANCH  31  40
ATOM     40  C   UNL     1      -2.954  10.996  25.045  0.00  0.00    +0.414 C 
ATOM     41  O   UNL     1      -1.896  11.302  25.595  0.00  0.00    -0.240 OA
ATOM     42  O   UNL     1      -3.236   9.806  24.902  0.00  0.00    -0.240 OA
ENDBRANCH  31  40
BRANCH  33  43
ATOM     43  O   UNL     1      -2.579  12.966  21.088  0.00  0.00    -0.390 OA
ATOM     44  H   UNL     1      -2.569  13.876  21.395  0.00  0.00    +0.210 HD
ENDBRANCH  33  43
BRANCH  31  45
ATOM     45  O   UNL     1      -4.252  12.986  25.634  0.00  0.00    -0.343 OA
ATOM     46  C   UNL     1      -5.672  13.203  25.831  0.00  0.00    +0.198 C 
ENDBRANCH  31  45
ENDBRANCH  28  29
BRANCH  28  47
ATOM     47  O   UNL     1      -7.442  11.055  22.736  0.00  0.00    -0.387 OA
ATOM     48  H   UNL     1      -7.199  11.881  22.310  0.00  0.00    +0.210 HD
ENDBRANCH  28  47
ENDBRANCH  25  28
ENDBRANCH   1  25
TORSDOF 16
