REMARK VINA RESULT:    -4.685      5.196     11.009
REMARK INTER + INTRA:         -10.950
REMARK INTER:                  -8.152
REMARK INTRA:                  -2.798
REMARK UNBOUND:                -2.841
REMARK  Name = lig_assembled_86.pdb
REMARK  17 active torsions:
REMARK  status: ('A' for Active; 'I' for Inactive)
REMARK    1  A    between atoms: _2  and  _10
REMARK    2  A    between atoms: _3  and  _13
REMARK    3  A    between atoms: _5  and  _21
REMARK    4  A    between atoms: _7  and  _8
REMARK    5  A    between atoms: _7  and  _21
REMARK    6  A    between atoms: _17  and  _37
REMARK    7  A    between atoms: _19  and  _25
REMARK    8  A    between atoms: _20  and  _24
REMARK    9  A    between atoms: _24  and  _25
REMARK   10  A    between atoms: _27  and  _28
REMARK   11  A    between atoms: _29  and  _30
REMARK   12  A    between atoms: _31  and  _33
REMARK   13  A    between atoms: _33  and  _34
REMARK   14  A    between atoms: _33  and  _35
REMARK   15  A    between atoms: _35  and  _36
REMARK   16  A    between atoms: _35  and  _37
REMARK   17  A    between atoms: _38  and  _40
REMARK                            x       y       z     vdW  Elec       q    Type
REMARK                         _______ _______ _______ _____ _____    ______ ____
ROOT
ATOM      1  C   UNL     1      -2.685  11.773  24.195  0.00  0.00    +0.163 C 
ENDROOT
BRANCH   1   2
ATOM      2  O   UNL     1      -2.056  11.722  25.486  0.00  0.00    -0.388 OA
ATOM      3  H   UNL     1      -1.137  11.460  25.385  0.00  0.00    +0.210 HD
ENDBRANCH   1   2
BRANCH   1   4
ATOM      4  C   UNL     1      -3.313  13.146  23.974  0.00  0.00    +0.141 C 
BRANCH   4   7
ATOM      5  C   UNL     1      -4.370  13.125  21.741  0.00  0.00    +0.401 C 
ATOM      6  O   UNL     1      -3.304  13.238  21.132  0.00  0.00    -0.226 OA
ATOM      7  N   UNL     1      -4.468  13.080  23.071  0.00  0.00    -0.279 N 
ATOM      8  H   UNL     1      -5.388  12.996  23.479  0.00  0.00    +0.152 HD
BRANCH   5   9
ATOM      9  O   UNL     1      -5.590  13.041  20.999  0.00  0.00    -0.444 OA
BRANCH   9  10
ATOM     10  C   UNL     1      -6.185  11.757  21.203  0.00  0.00    +0.292 C 
BRANCH  10  12
ATOM     11  N   UNL     1      -5.141   9.659  20.391  0.00  0.00    -0.131 NA
ATOM     12  C   UNL     1      -5.792  10.834  20.121  0.00  0.00    +0.120 A 
ATOM     13  C   UNL     1      -5.986  10.935  18.764  0.00  0.00    +0.137 A 
ATOM     14  N   UNL     1      -5.466   9.779  18.268  0.00  0.00    -0.248 N 
ATOM     15  N   UNL     1      -4.930   9.027  19.244  0.00  0.00    -0.065 NA
BRANCH  14  16
ATOM     16  C   UNL     1      -5.460   9.337  16.881  0.00  0.00    +0.112 C 
ATOM     17  C   UNL     1      -6.180  10.340  15.956  0.00  0.00    +0.045 C 
ATOM     18  C   UNL     1      -5.427  10.671  14.664  0.00  0.00    +0.059 C 
ATOM     19  C   UNL     1      -4.268  11.636  14.931  0.00  0.00    +0.020 C 
ATOM     20  C   UNL     1      -3.053  10.734  15.132  0.00  0.00    +0.020 C 
ATOM     21  C   UNL     1      -3.615   9.312  15.048  0.00  0.00    +0.059 C 
ATOM     22  N   UNL     1      -4.718   9.517  14.111  0.00  0.00    -0.299 NA
ATOM     23  C   UNL     1      -5.518   8.350  13.789  0.00  0.00    +0.105 C 
ATOM     24  C   UNL     1      -4.079   8.814  16.424  0.00  0.00    +0.045 C 
ENDBRANCH  14  16
ENDBRANCH  10  12
ENDBRANCH   9  10
ENDBRANCH   5   9
ENDBRANCH   4   7
ENDBRANCH   1   4
BRANCH   1  25
ATOM     25  C   UNL     1      -3.766  10.687  24.066  0.00  0.00    +0.175 C 
BRANCH  25  26
ATOM     26  C   UNL     1      -3.878   9.830  25.336  0.00  0.00    +0.176 C 
ATOM     27  O   UNL     1      -2.838   8.815  25.284  0.00  0.00    -0.332 OA
ATOM     28  C   UNL     1      -2.723   7.964  26.472  0.00  0.00    +0.277 C 
ATOM     29  C   UNL     1      -4.085   7.301  26.796  0.00  0.00    +0.110 C 
ATOM     30  C   UNL     1      -5.228   8.337  26.831  0.00  0.00    +0.143 C 
ATOM     31  C   UNL     1      -5.253   9.170  25.548  0.00  0.00    +0.133 C 
BRANCH  31  32
ATOM     32  N   UNL     1      -6.291  10.210  25.630  0.00  0.00    -0.308 N 
ATOM     33  H   UNL     1      -6.225  10.884  26.379  0.00  0.00    +0.149 HD
ATOM     34  C   UNL     1      -7.313  10.322  24.777  0.00  0.00    +0.210 C 
ATOM     35  C   UNL     1      -7.399   9.263  23.661  0.00  0.00    +0.109 C 
ATOM     36  O   UNL     1      -8.159  11.212  24.861  0.00  0.00    -0.276 OA
ENDBRANCH  31  32
BRANCH  28  37
ATOM     37  C   UNL     1      -2.246   8.784  27.689  0.00  0.00    +0.414 C 
ATOM     38  O   UNL     1      -2.543   8.431  28.829  0.00  0.00    -0.240 OA
ATOM     39  O   UNL     1      -1.564   9.797  27.530  0.00  0.00    -0.240 OA
ENDBRANCH  28  37
BRANCH  30  40
ATOM     40  O   UNL     1      -6.480   7.668  26.981  0.00  0.00    -0.390 OA
ATOM     41  H   UNL     1      -6.907   7.963  27.789  0.00  0.00    +0.210 HD
ENDBRANCH  30  40
BRANCH  28  42
ATOM     42  O   UNL     1      -1.762   6.916  26.182  0.00  0.00    -0.343 OA
ATOM     43  C   UNL     1      -2.324   5.584  26.070  0.00  0.00    +0.198 C 
ENDBRANCH  28  42
ENDBRANCH  25  26
BRANCH  25  44
ATOM     44  O   UNL     1      -3.495   9.849  22.924  0.00  0.00    -0.387 OA
ATOM     45  H   UNL     1      -3.309  10.400  22.160  0.00  0.00    +0.210 HD
ENDBRANCH  25  44
ENDBRANCH   1  25
TORSDOF 14
