REMARK VINA RESULT:    -5.143      2.702      7.292
REMARK INTER + INTRA:         -10.898
REMARK INTER:                  -8.124
REMARK INTRA:                  -2.774
REMARK UNBOUND:                -1.997
REMARK  Name = lig_assembled_57.pdb
REMARK  17 active torsions:
REMARK  status: ('A' for Active; 'I' for Inactive)
REMARK    1  A    between atoms: _2  and  _10
REMARK    2  A    between atoms: _3  and  _13
REMARK    3  A    between atoms: _5  and  _19
REMARK    4  A    between atoms: _7  and  _8
REMARK    5  A    between atoms: _7  and  _19
REMARK    6  A    between atoms: _15  and  _35
REMARK    7  A    between atoms: _17  and  _23
REMARK    8  A    between atoms: _18  and  _22
REMARK    9  A    between atoms: _22  and  _23
REMARK   10  A    between atoms: _25  and  _26
REMARK   11  A    between atoms: _27  and  _28
REMARK   12  A    between atoms: _29  and  _31
REMARK   13  A    between atoms: _31  and  _32
REMARK   14  A    between atoms: _31  and  _33
REMARK   15  A    between atoms: _33  and  _34
REMARK   16  A    between atoms: _33  and  _35
REMARK   17  A    between atoms: _36  and  _38
REMARK                            x       y       z     vdW  Elec       q    Type
REMARK                         _______ _______ _______ _____ _____    ______ ____
ROOT
ATOM      1  C   UNL     1      -3.428  11.652  26.256  0.00  0.00    +0.163 C 
ENDROOT
BRANCH   1   2
ATOM      2  O   UNL     1      -3.763  12.140  27.565  0.00  0.00    -0.388 OA
ATOM      3  H   UNL     1      -3.014  12.616  27.931  0.00  0.00    +0.210 HD
ENDBRANCH   1   2
BRANCH   1   4
ATOM      4  C   UNL     1      -2.072  10.955  26.290  0.00  0.00    +0.141 C 
BRANCH   4   7
ATOM      5  C   UNL     1      -1.814   8.851  27.561  0.00  0.00    +0.401 C 
ATOM      6  O   UNL     1      -1.908   8.129  26.566  0.00  0.00    -0.226 OA
ATOM      7  N   UNL     1      -1.885  10.182  27.525  0.00  0.00    -0.279 N 
ATOM      8  H   UNL     1      -1.806  10.688  28.396  0.00  0.00    +0.152 HD
BRANCH   5   9
ATOM      9  O   UNL     1      -1.620   8.247  28.842  0.00  0.00    -0.444 OA
BRANCH   9  10
ATOM     10  C   UNL     1      -2.891   7.986  29.444  0.00  0.00    +0.292 C 
BRANCH  10  12
ATOM     11  N   UNL     1      -4.478   9.877  29.380  0.00  0.00    -0.131 NA
ATOM     12  C   UNL     1      -3.449   9.231  30.003  0.00  0.00    +0.120 A 
ATOM     13  C   UNL     1      -3.115   9.918  31.151  0.00  0.00    +0.137 A 
ATOM     14  N   UNL     1      -4.035  10.921  31.219  0.00  0.00    -0.248 N 
ATOM     15  N   UNL     1      -4.804  10.931  30.110  0.00  0.00    -0.065 NA
BRANCH  14  16
ATOM     16  C   UNL     1      -4.331  11.880  32.278  0.00  0.00    +0.111 C 
ATOM     17  C   UNL     1      -3.045  12.309  32.999  0.00  0.00    +0.042 C 
ATOM     18  C   UNL     1      -2.233  13.262  32.124  0.00  0.00    +0.086 C 
ATOM     19  N   UNL     1      -2.976  14.473  31.758  0.00  0.00    -0.305 NA
ATOM     20  C   UNL     1      -4.261  14.175  31.125  0.00  0.00    +0.086 C 
ATOM     21  C   UNL     1      -3.095  15.409  32.873  0.00  0.00    +0.104 C 
ATOM     22  C   UNL     1      -5.118  13.133  31.859  0.00  0.00    +0.042 C 
ENDBRANCH  14  16
ENDBRANCH  10  12
ENDBRANCH   9  10
ENDBRANCH   5   9
ENDBRANCH   4   7
ENDBRANCH   1   4
BRANCH   1  23
ATOM     23  C   UNL     1      -3.389  12.801  25.234  0.00  0.00    +0.175 C 
BRANCH  23  24
ATOM     24  C   UNL     1      -4.731  12.975  24.507  0.00  0.00    +0.176 C 
ATOM     25  O   UNL     1      -5.668  13.581  25.439  0.00  0.00    -0.332 OA
ATOM     26  C   UNL     1      -6.982  13.920  24.885  0.00  0.00    +0.277 C 
ATOM     27  C   UNL     1      -7.629  12.678  24.225  0.00  0.00    +0.110 C 
ATOM     28  C   UNL     1      -6.658  11.981  23.249  0.00  0.00    +0.143 C 
ATOM     29  C   UNL     1      -5.322  11.676  23.928  0.00  0.00    +0.133 C 
BRANCH  29  30
ATOM     30  N   UNL     1      -4.376  11.091  22.965  0.00  0.00    -0.308 N 
ATOM     31  H   UNL     1      -4.026  11.687  22.227  0.00  0.00    +0.149 HD
ATOM     32  C   UNL     1      -3.950   9.826  23.002  0.00  0.00    +0.210 C 
ATOM     33  C   UNL     1      -4.522   8.938  24.123  0.00  0.00    +0.109 C 
ATOM     34  O   UNL     1      -3.145   9.368  22.190  0.00  0.00    -0.276 OA
ENDBRANCH  29  30
BRANCH  26  35
ATOM     35  C   UNL     1      -6.861  15.052  23.844  0.00  0.00    +0.414 C 
ATOM     36  O   UNL     1      -7.592  15.066  22.854  0.00  0.00    -0.240 OA
ATOM     37  O   UNL     1      -6.032  15.951  23.993  0.00  0.00    -0.240 OA
ENDBRANCH  26  35
BRANCH  28  38
ATOM     38  O   UNL     1      -7.237  10.762  22.782  0.00  0.00    -0.390 OA
ATOM     39  H   UNL     1      -7.459  10.848  21.851  0.00  0.00    +0.210 HD
ENDBRANCH  28  38
BRANCH  26  40
ATOM     40  O   UNL     1      -7.833  14.352  25.978  0.00  0.00    -0.343 OA
ATOM     41  C   UNL     1      -7.127  14.757  27.179  0.00  0.00    +0.198 C 
ENDBRANCH  26  40
ENDBRANCH  23  24
BRANCH  23  42
ATOM     42  O   UNL     1      -2.332  12.580  24.278  0.00  0.00    -0.387 OA
ATOM     43  H   UNL     1      -2.440  11.716  23.875  0.00  0.00    +0.210 HD
ENDBRANCH  23  42
ENDBRANCH   1  23
TORSDOF 14
