REMARK VINA RESULT:    -4.643      5.433      7.183
REMARK INTER + INTRA:         -12.100
REMARK INTER:                  -7.698
REMARK INTRA:                  -4.402
REMARK UNBOUND:                -3.657
REMARK  Name = lig_assembled_88.pdb
REMARK  18 active torsions:
REMARK  status: ('A' for Active; 'I' for Inactive)
REMARK    1  A    between atoms: _2  and  _9
REMARK    2  A    between atoms: _4  and  _20
REMARK    3  A    between atoms: _5  and  _15
REMARK    4  A    between atoms: _6  and  _7
REMARK    5  A    between atoms: _6  and  _20
REMARK    6  A    between atoms: _9  and  _10
REMARK    7  A    between atoms: _16  and  _36
REMARK    8  A    between atoms: _18  and  _24
REMARK    9  A    between atoms: _19  and  _23
REMARK   10  A    between atoms: _23  and  _24
REMARK   11  A    between atoms: _26  and  _27
REMARK   12  A    between atoms: _28  and  _29
REMARK   13  A    between atoms: _30  and  _32
REMARK   14  A    between atoms: _32  and  _33
REMARK   15  A    between atoms: _32  and  _34
REMARK   16  A    between atoms: _34  and  _35
REMARK   17  A    between atoms: _34  and  _36
REMARK   18  A    between atoms: _37  and  _39
REMARK                            x       y       z     vdW  Elec       q    Type
REMARK                         _______ _______ _______ _____ _____    ______ ____
ROOT
ATOM      1  C   UNL     1      -2.974  12.244  31.240  0.00  0.00    +0.163 C 
ENDROOT
BRANCH   1   2
ATOM      2  O   UNL     1      -2.086  11.201  31.676  0.00  0.00    -0.388 OA
ATOM      3  H   UNL     1      -2.367  10.879  32.536  0.00  0.00    +0.210 HD
ENDBRANCH   1   2
BRANCH   1   4
ATOM      4  C   UNL     1      -4.095  11.677  30.352  0.00  0.00    +0.175 C 
BRANCH   4   5
ATOM      5  C   UNL     1      -3.751  10.283  29.806  0.00  0.00    +0.176 C 
ATOM      6  O   UNL     1      -3.974  10.298  28.370  0.00  0.00    -0.332 OA
ATOM      7  C   UNL     1      -3.595   9.075  27.656  0.00  0.00    +0.277 C 
ATOM      8  C   UNL     1      -4.296   7.844  28.282  0.00  0.00    +0.110 C 
ATOM      9  C   UNL     1      -4.113   7.802  29.814  0.00  0.00    +0.143 C 
ATOM     10  C   UNL     1      -4.535   9.126  30.453  0.00  0.00    +0.133 C 
BRANCH  10  11
ATOM     11  N   UNL     1      -4.274   9.105  31.901  0.00  0.00    -0.308 N 
ATOM     12  H   UNL     1      -3.321   8.969  32.207  0.00  0.00    +0.149 HD
ATOM     13  C   UNL     1      -5.216   9.253  32.837  0.00  0.00    +0.210 C 
ATOM     14  C   UNL     1      -6.662   9.432  32.339  0.00  0.00    +0.109 C 
ATOM     15  O   UNL     1      -4.966   9.246  34.043  0.00  0.00    -0.276 OA
ENDBRANCH  10  11
BRANCH   7  16
ATOM     16  C   UNL     1      -2.066   8.871  27.694  0.00  0.00    +0.414 C 
ATOM     17  O   UNL     1      -1.594   7.764  27.948  0.00  0.00    -0.240 OA
ATOM     18  O   UNL     1      -1.305   9.814  27.469  0.00  0.00    -0.240 OA
ENDBRANCH   7  16
BRANCH   7  19
ATOM     19  O   UNL     1      -4.037   9.202  26.280  0.00  0.00    -0.343 OA
ATOM     20  C   UNL     1      -4.147   7.952  25.554  0.00  0.00    +0.198 C 
ENDBRANCH   7  19
BRANCH   9  21
ATOM     21  O   UNL     1      -4.897   6.743  30.364  0.00  0.00    -0.390 OA
ATOM     22  H   UNL     1      -5.065   6.083  29.687  0.00  0.00    +0.210 HD
ENDBRANCH   9  21
ENDBRANCH   4   5
BRANCH   4  23
ATOM     23  O   UNL     1      -4.373  12.581  29.265  0.00  0.00    -0.387 OA
ATOM     24  H   UNL     1      -5.223  13.004  29.409  0.00  0.00    +0.210 HD
ENDBRANCH   4  23
ENDBRANCH   1   4
BRANCH   1  25
ATOM     25  C   UNL     1      -3.586  12.946  32.448  0.00  0.00    +0.141 C 
BRANCH  25  28
ATOM     26  C   UNL     1      -4.799  15.039  31.945  0.00  0.00    +0.401 C 
ATOM     27  O   UNL     1      -3.814  15.761  32.116  0.00  0.00    -0.226 OA
ATOM     28  N   UNL     1      -4.784  13.713  32.085  0.00  0.00    -0.279 N 
ATOM     29  H   UNL     1      -5.646  13.208  31.934  0.00  0.00    +0.152 HD
BRANCH  26  30
ATOM     30  O   UNL     1      -6.044  15.638  31.579  0.00  0.00    -0.444 OA
BRANCH  30  31
ATOM     31  C   UNL     1      -5.958  16.144  30.244  0.00  0.00    +0.292 C 
BRANCH  31  33
ATOM     32  N   UNL     1      -6.931  13.934  29.695  0.00  0.00    -0.131 NA
ATOM     33  C   UNL     1      -6.543  15.184  29.289  0.00  0.00    +0.120 A 
ATOM     34  C   UNL     1      -6.780  15.313  27.939  0.00  0.00    +0.137 A 
ATOM     35  N   UNL     1      -7.241  14.082  27.570  0.00  0.00    -0.247 N 
ATOM     36  N   UNL     1      -7.378  13.273  28.636  0.00  0.00    -0.065 NA
BRANCH  35  37
ATOM     37  C   UNL     1      -7.500  13.587  26.226  0.00  0.00    +0.184 C 
BRANCH  37  38
ATOM     38  C   UNL     1      -6.318  13.748  25.292  0.00  0.00    +0.017 A 
ATOM     39  C   UNL     1      -6.295  14.709  24.262  0.00  0.00    +0.024 A 
ATOM     40  C   UNL     1      -5.188  14.829  23.418  0.00  0.00    +0.019 A 
ATOM     41 BR   UNL     1      -5.214  16.097  22.015  0.00  0.00    -0.050 Br
ATOM     42  C   UNL     1      -4.067  14.025  23.595  0.00  0.00    +0.034 A 
ATOM     43  C   UNL     1      -4.056  13.103  24.638  0.00  0.00    +0.061 A 
ATOM     44 BR   UNL     1      -2.511  12.034  24.898  0.00  0.00    -0.046 Br
ATOM     45  C   UNL     1      -5.168  12.970  25.480  0.00  0.00    +0.136 A 
BRANCH  45  46
ATOM     46  O   UNL     1      -5.162  12.076  26.519  0.00  0.00    -0.505 OA
ATOM     47  H   UNL     1      -5.894  11.448  26.371  0.00  0.00    +0.292 HD
ENDBRANCH  45  46
ENDBRANCH  37  38
ENDBRANCH  35  37
ENDBRANCH  31  33
ENDBRANCH  30  31
ENDBRANCH  26  30
ENDBRANCH  25  28
ENDBRANCH   1  25
TORSDOF 16
