REMARK VINA RESULT:    -4.702      1.978      3.267
REMARK INTER + INTRA:         -11.552
REMARK INTER:                  -9.182
REMARK INTRA:                  -2.370
REMARK UNBOUND:                -2.590
REMARK  Name = lig_assembled_29.pdb
REMARK  21 active torsions:
REMARK  status: ('A' for Active; 'I' for Inactive)
REMARK    1  A    between atoms: _2  and  _9
REMARK    2  A    between atoms: _4  and  _23
REMARK    3  A    between atoms: _6  and  _7
REMARK    4  A    between atoms: _6  and  _23
REMARK    5  A    between atoms: _9  and  _10
REMARK    6  A    between atoms: _12  and  _18
REMARK    7  A    between atoms: _13  and  _18
REMARK    8  A    between atoms: _14  and  _17
REMARK    9  A    between atoms: _15  and  _17
REMARK   10  A    between atoms: _19  and  _39
REMARK   11  A    between atoms: _21  and  _27
REMARK   12  A    between atoms: _22  and  _26
REMARK   13  A    between atoms: _26  and  _27
REMARK   14  A    between atoms: _29  and  _30
REMARK   15  A    between atoms: _31  and  _32
REMARK   16  A    between atoms: _33  and  _35
REMARK   17  A    between atoms: _35  and  _36
REMARK   18  A    between atoms: _35  and  _37
REMARK   19  A    between atoms: _37  and  _38
REMARK   20  A    between atoms: _37  and  _39
REMARK   21  A    between atoms: _40  and  _42
REMARK                            x       y       z     vdW  Elec       q    Type
REMARK                         _______ _______ _______ _____ _____    ______ ____
ROOT
ATOM      1  C   UNL     1      -5.368   8.941  25.386  0.00  0.00    +0.163 C 
ENDROOT
BRANCH   1   2
ATOM      2  O   UNL     1      -6.595   8.543  26.019  0.00  0.00    -0.388 OA
ATOM      3  H   UNL     1      -7.135   8.054  25.393  0.00  0.00    +0.210 HD
ENDBRANCH   1   2
BRANCH   1   4
ATOM      4  C   UNL     1      -4.157   8.291  26.077  0.00  0.00    +0.175 C 
BRANCH   4   5
ATOM      5  C   UNL     1      -3.846   8.944  27.432  0.00  0.00    +0.176 C 
ATOM      6  O   UNL     1      -4.851   8.499  28.384  0.00  0.00    -0.332 OA
ATOM      7  C   UNL     1      -4.653   8.941  29.768  0.00  0.00    +0.277 C 
ATOM      8  C   UNL     1      -4.520  10.482  29.830  0.00  0.00    +0.110 C 
ATOM      9  C   UNL     1      -3.485  11.006  28.812  0.00  0.00    +0.143 C 
ATOM     10  C   UNL     1      -3.784  10.483  27.407  0.00  0.00    +0.133 C 
BRANCH  10  11
ATOM     11  N   UNL     1      -2.742  10.917  26.462  0.00  0.00    -0.308 N 
ATOM     12  H   UNL     1      -1.823  10.509  26.554  0.00  0.00    +0.149 HD
ATOM     13  C   UNL     1      -2.933  11.816  25.492  0.00  0.00    +0.210 C 
ATOM     14  C   UNL     1      -4.339  12.438  25.395  0.00  0.00    +0.109 C 
ATOM     15  O   UNL     1      -2.046  12.150  24.706  0.00  0.00    -0.276 OA
ENDBRANCH  10  11
BRANCH   7  16
ATOM     16  C   UNL     1      -3.393   8.290  30.375  0.00  0.00    +0.414 C 
ATOM     17  O   UNL     1      -2.828   8.810  31.337  0.00  0.00    -0.240 OA
ATOM     18  O   UNL     1      -2.941   7.246  29.903  0.00  0.00    -0.240 OA
ENDBRANCH   7  16
BRANCH   7  19
ATOM     19  O   UNL     1      -5.821   8.551  30.535  0.00  0.00    -0.343 OA
ATOM     20  C   UNL     1      -7.092   8.944  29.957  0.00  0.00    +0.198 C 
ENDBRANCH   7  19
BRANCH   9  21
ATOM     21  O   UNL     1      -3.504  12.434  28.796  0.00  0.00    -0.390 OA
ATOM     22  H   UNL     1      -3.071  12.752  28.001  0.00  0.00    +0.210 HD
ENDBRANCH   9  21
ENDBRANCH   4   5
BRANCH   4  23
ATOM     23  O   UNL     1      -3.001   8.355  25.218  0.00  0.00    -0.387 OA
ATOM     24  H   UNL     1      -3.256   8.710  24.363  0.00  0.00    +0.210 HD
ENDBRANCH   4  23
ENDBRANCH   1   4
BRANCH   1  25
ATOM     25  C   UNL     1      -5.387   8.543  23.913  0.00  0.00    +0.141 C 
BRANCH  25  28
ATOM     26  C   UNL     1      -3.991   9.851  22.350  0.00  0.00    +0.401 C 
ATOM     27  O   UNL     1      -3.042   9.066  22.392  0.00  0.00    -0.226 OA
ATOM     28  N   UNL     1      -5.124   9.689  23.034  0.00  0.00    -0.279 N 
ATOM     29  H   UNL     1      -5.843  10.393  22.941  0.00  0.00    +0.152 HD
BRANCH  26  30
ATOM     30  O   UNL     1      -3.892  11.017  21.528  0.00  0.00    -0.444 OA
BRANCH  30  31
ATOM     31  C   UNL     1      -5.139  11.242  20.864  0.00  0.00    +0.292 C 
BRANCH  31  33
ATOM     32  N   UNL     1      -4.880   9.179  19.513  0.00  0.00    -0.131 NA
ATOM     33  C   UNL     1      -5.180  10.514  19.583  0.00  0.00    +0.120 A 
ATOM     34  C   UNL     1      -5.520  10.965  18.327  0.00  0.00    +0.137 A 
ATOM     35  N   UNL     1      -5.498   9.837  17.558  0.00  0.00    -0.247 N 
ATOM     36  N   UNL     1      -5.068   8.776  18.262  0.00  0.00    -0.065 NA
BRANCH  35  37
ATOM     37  C   UNL     1      -5.916   9.688  16.177  0.00  0.00    +0.180 C 
BRANCH  37  38
ATOM     38  C   UNL     1      -4.836  10.168  15.234  0.00  0.00    -0.022 A 
ATOM     39  C   UNL     1      -3.691   9.383  15.011  0.00  0.00    +0.054 A 
ATOM     40  C   UNL     1      -2.720   9.779  14.080  0.00  0.00    +0.162 A 
ATOM     41  C   UNL     1      -2.891  10.982  13.367  0.00  0.00    +0.162 A 
ATOM     42  C   UNL     1      -4.029  11.761  13.590  0.00  0.00    +0.050 A 
ATOM     43  C   UNL     1      -4.993  11.358  14.517  0.00  0.00    +0.009 A 
BRANCH  40  44
ATOM     44  O   UNL     1      -1.587   9.059  13.791  0.00  0.00    -0.491 OA
ATOM     45  C   UNL     1      -1.748   7.721  13.341  0.00  0.00    +0.277 C 
ENDBRANCH  40  44
BRANCH  41  46
ATOM     46  O   UNL     1      -1.894  11.304  12.478  0.00  0.00    -0.491 OA
ATOM     47  C   UNL     1      -1.834  12.644  12.009  0.00  0.00    +0.277 C 
ENDBRANCH  41  46
ENDBRANCH  37  38
ENDBRANCH  35  37
ENDBRANCH  31  33
ENDBRANCH  30  31
ENDBRANCH  26  30
ENDBRANCH  25  28
ENDBRANCH   1  25
TORSDOF 17
