REMARK VINA RESULT:    -5.273      2.821      8.153
REMARK INTER + INTRA:         -13.694
REMARK INTER:                  -9.997
REMARK INTRA:                  -3.697
REMARK UNBOUND:                -3.181
REMARK  Name = lig_assembled_76.pdb
REMARK  21 active torsions:
REMARK  status: ('A' for Active; 'I' for Inactive)
REMARK    1  A    between atoms: _2  and  _9
REMARK    2  A    between atoms: _4  and  _23
REMARK    3  A    between atoms: _6  and  _7
REMARK    4  A    between atoms: _6  and  _23
REMARK    5  A    between atoms: _9  and  _10
REMARK    6  A    between atoms: _10  and  _11
REMARK    7  A    between atoms: _10  and  _18
REMARK    8  A    between atoms: _11  and  _12
REMARK    9  A    between atoms: _12  and  _13
REMARK   10  A    between atoms: _19  and  _39
REMARK   11  A    between atoms: _21  and  _27
REMARK   12  A    between atoms: _22  and  _26
REMARK   13  A    between atoms: _26  and  _27
REMARK   14  A    between atoms: _29  and  _30
REMARK   15  A    between atoms: _31  and  _32
REMARK   16  A    between atoms: _33  and  _35
REMARK   17  A    between atoms: _35  and  _36
REMARK   18  A    between atoms: _35  and  _37
REMARK   19  A    between atoms: _37  and  _38
REMARK   20  A    between atoms: _37  and  _39
REMARK   21  A    between atoms: _40  and  _42
REMARK                            x       y       z     vdW  Elec       q    Type
REMARK                         _______ _______ _______ _____ _____    ______ ____
ROOT
ATOM      1  C   UNL     1      -3.246  11.469  27.761  0.00  0.00    +0.141 C 
ENDROOT
BRANCH   1   4
ATOM      2  C   UNL     1      -2.474   9.598  26.342  0.00  0.00    +0.401 C 
ATOM      3  O   UNL     1      -1.288   9.932  26.385  0.00  0.00    -0.226 OA
ATOM      4  N   UNL     1      -3.458  10.262  26.951  0.00  0.00    -0.279 N 
ATOM      5  H   UNL     1      -4.401   9.916  26.850  0.00  0.00    +0.152 HD
BRANCH   2   6
ATOM      6  O   UNL     1      -2.843   8.434  25.597  0.00  0.00    -0.444 OA
BRANCH   6   7
ATOM      7  C   UNL     1      -4.264   8.278  25.627  0.00  0.00    +0.292 C 
BRANCH   7   9
ATOM      8  N   UNL     1      -5.718  10.081  24.743  0.00  0.00    -0.131 NA
ATOM      9  C   UNL     1      -4.886   9.015  24.515  0.00  0.00    +0.120 A 
ATOM     10  C   UNL     1      -4.785   8.803  23.157  0.00  0.00    +0.137 A 
ATOM     11  N   UNL     1      -5.572   9.773  22.618  0.00  0.00    -0.249 N 
ATOM     12  N   UNL     1      -6.140  10.533  23.569  0.00  0.00    -0.065 NA
BRANCH  11  13
ATOM     13  C   UNL     1      -5.932   9.948  21.229  0.00  0.00    +0.176 C 
BRANCH  13  14
ATOM     14  C   UNL     1      -4.738  10.328  20.347  0.00  0.00    +0.136 C 
BRANCH  14  15
ATOM     15  O   UNL     1      -4.717   9.513  19.166  0.00  0.00    -0.390 OA
ATOM     16  H   UNL     1      -3.993   9.809  18.588  0.00  0.00    +0.210 HD
ENDBRANCH  14  15
BRANCH  14  17
ATOM     17  C   UNL     1      -4.788  11.796  19.892  0.00  0.00    +0.038 C 
BRANCH  17  18
ATOM     18  C   UNL     1      -3.642  12.643  20.445  0.00  0.00    +0.038 C 
BRANCH  18  19
ATOM     19  C   UNL     1      -3.776  12.880  21.928  0.00  0.00    -0.047 A 
ATOM     20  C   UNL     1      -2.942  12.203  22.829  0.00  0.00    +0.003 A 
ATOM     21  C   UNL     1      -3.050  12.433  24.201  0.00  0.00    +0.000 A 
ATOM     22  C   UNL     1      -3.996  13.335  24.684  0.00  0.00    +0.000 A 
ATOM     23  C   UNL     1      -4.837  14.003  23.795  0.00  0.00    +0.000 A 
ATOM     24  C   UNL     1      -4.731  13.774  22.423  0.00  0.00    +0.003 A 
ENDBRANCH  18  19
ENDBRANCH  17  18
ENDBRANCH  14  17
ENDBRANCH  13  14
ENDBRANCH  11  13
ENDBRANCH   7   9
ENDBRANCH   6   7
ENDBRANCH   2   6
ENDBRANCH   1   4
BRANCH   1  25
ATOM     25  C   UNL     1      -4.564  12.085  28.218  0.00  0.00    +0.163 C 
BRANCH  25  26
ATOM     26  O   UNL     1      -5.658  11.223  27.864  0.00  0.00    -0.388 OA
ATOM     27  H   UNL     1      -6.043  11.518  27.035  0.00  0.00    +0.210 HD
ENDBRANCH  25  26
BRANCH  25  28
ATOM     28  C   UNL     1      -4.520  12.322  29.738  0.00  0.00    +0.175 C 
BRANCH  28  29
ATOM     29  C   UNL     1      -4.151  11.047  30.511  0.00  0.00    +0.176 C 
ATOM     30  O   UNL     1      -5.336  10.207  30.578  0.00  0.00    -0.332 OA
ATOM     31  C   UNL     1      -5.145   8.890  31.194  0.00  0.00    +0.277 C 
ATOM     32  C   UNL     1      -4.528   9.038  32.606  0.00  0.00    +0.110 C 
ATOM     33  C   UNL     1      -3.283   9.949  32.591  0.00  0.00    +0.143 C 
ATOM     34  C   UNL     1      -3.593  11.291  31.926  0.00  0.00    +0.133 C 
BRANCH  34  35
ATOM     35  N   UNL     1      -2.378  12.116  31.839  0.00  0.00    -0.308 N 
ATOM     36  H   UNL     1      -1.580  11.732  31.352  0.00  0.00    +0.149 HD
ATOM     37  C   UNL     1      -2.260  13.339  32.362  0.00  0.00    +0.210 C 
ATOM     38  C   UNL     1      -3.484  13.886  33.121  0.00  0.00    +0.109 C 
ATOM     39  O   UNL     1      -1.235  14.014  32.261  0.00  0.00    -0.276 OA
ENDBRANCH  34  35
BRANCH  31  40
ATOM     40  C   UNL     1      -4.231   8.005  30.321  0.00  0.00    +0.414 C 
ATOM     41  O   UNL     1      -4.221   8.141  29.098  0.00  0.00    -0.240 OA
ATOM     42  O   UNL     1      -3.505   7.156  30.839  0.00  0.00    -0.240 OA
ENDBRANCH  31  40
BRANCH  33  43
ATOM     43  O   UNL     1      -2.837  10.179  33.928  0.00  0.00    -0.390 OA
ATOM     44  H   UNL     1      -2.800   9.344  34.401  0.00  0.00    +0.210 HD
ENDBRANCH  33  43
BRANCH  31  45
ATOM     45  O   UNL     1      -6.448   8.264  31.328  0.00  0.00    -0.343 OA
ATOM     46  C   UNL     1      -6.636   7.497  32.543  0.00  0.00    +0.198 C 
ENDBRANCH  31  45
ENDBRANCH  28  29
BRANCH  28  47
ATOM     47  O   UNL     1      -5.787  12.833  30.198  0.00  0.00    -0.387 OA
ATOM     48  H   UNL     1      -6.279  13.186  29.453  0.00  0.00    +0.210 HD
ENDBRANCH  28  47
ENDBRANCH  25  28
ENDBRANCH   1  25
TORSDOF 19
