REMARK VINA RESULT:    -4.070      2.210      3.169
REMARK INTER + INTRA:         -10.907
REMARK INTER:                  -6.802
REMARK INTRA:                  -4.104
REMARK UNBOUND:                -3.505
REMARK  Name = lig_assembled_22.pdb
REMARK  20 active torsions:
REMARK  status: ('A' for Active; 'I' for Inactive)
REMARK    1  A    between atoms: _2  and  _9
REMARK    2  A    between atoms: _4  and  _18
REMARK    3  A    between atoms: _5  and  _9
REMARK    4  A    between atoms: _5  and  _12
REMARK    5  A    between atoms: _6  and  _7
REMARK    6  A    between atoms: _6  and  _18
REMARK    7  A    between atoms: _9  and  _10
REMARK    8  A    between atoms: _9  and  _11
REMARK    9  A    between atoms: _14  and  _34
REMARK   10  A    between atoms: _16  and  _22
REMARK   11  A    between atoms: _17  and  _21
REMARK   12  A    between atoms: _21  and  _22
REMARK   13  A    between atoms: _24  and  _25
REMARK   14  A    between atoms: _26  and  _27
REMARK   15  A    between atoms: _28  and  _30
REMARK   16  A    between atoms: _30  and  _31
REMARK   17  A    between atoms: _30  and  _32
REMARK   18  A    between atoms: _32  and  _33
REMARK   19  A    between atoms: _32  and  _34
REMARK   20  A    between atoms: _35  and  _37
REMARK                            x       y       z     vdW  Elec       q    Type
REMARK                         _______ _______ _______ _____ _____    ______ ____
ROOT
ATOM      1  C   UNL     1      -6.087  12.395  26.626  0.00  0.00    +0.163 C 
ENDROOT
BRANCH   1   2
ATOM      2  O   UNL     1      -5.007  12.808  25.772  0.00  0.00    -0.388 OA
ATOM      3  H   UNL     1      -4.916  13.763  25.810  0.00  0.00    +0.210 HD
ENDBRANCH   1   2
BRANCH   1   4
ATOM      4  C   UNL     1      -7.163  13.475  26.664  0.00  0.00    +0.141 C 
BRANCH   4   7
ATOM      5  C   UNL     1      -7.599  15.179  24.928  0.00  0.00    +0.401 C 
ATOM      6  O   UNL     1      -7.323  16.131  25.660  0.00  0.00    -0.226 OA
ATOM      7  N   UNL     1      -7.557  13.903  25.316  0.00  0.00    -0.279 N 
ATOM      8  H   UNL     1      -7.811  13.192  24.645  0.00  0.00    +0.152 HD
BRANCH   5   9
ATOM      9  O   UNL     1      -7.994  15.432  23.577  0.00  0.00    -0.444 OA
BRANCH   9  10
ATOM     10  C   UNL     1      -6.848  15.799  22.805  0.00  0.00    +0.292 C 
BRANCH  10  12
ATOM     11  N   UNL     1      -4.772  14.596  23.388  0.00  0.00    -0.131 NA
ATOM     12  C   UNL     1      -5.933  14.650  22.671  0.00  0.00    +0.120 A 
ATOM     13  C   UNL     1      -6.031  13.518  21.890  0.00  0.00    +0.138 A 
ATOM     14  N   UNL     1      -4.897  12.812  22.178  0.00  0.00    -0.235 N 
ATOM     15  N   UNL     1      -4.144  13.474  23.079  0.00  0.00    -0.064 NA
BRANCH  14  16
ATOM     16  C   UNL     1      -4.438  11.531  21.638  0.00  0.00    +0.155 C 
ATOM     17  C   UNL     1      -2.909  11.505  21.420  0.00  0.00    +0.048 C 
ATOM     18  C   UNL     1      -5.127  11.291  20.282  0.00  0.00    +0.048 C 
BRANCH  16  19
ATOM     19  C   UNL     1      -4.786  10.392  22.600  0.00  0.00    +0.332 C 
ATOM     20  O   UNL     1      -5.150   9.278  22.244  0.00  0.00    -0.248 OA
BRANCH  19  21
ATOM     21  O   UNL     1      -4.667  10.689  23.917  0.00  0.00    -0.479 OA
ATOM     22  H   UNL     1      -4.033  10.149  24.429  0.00  0.00    +0.295 HD
ENDBRANCH  19  21
ENDBRANCH  16  19
ENDBRANCH  14  16
ENDBRANCH  10  12
ENDBRANCH   9  10
ENDBRANCH   5   9
ENDBRANCH   4   7
ENDBRANCH   1   4
BRANCH   1  23
ATOM     23  C   UNL     1      -5.585  12.119  28.053  0.00  0.00    +0.175 C 
BRANCH  23  24
ATOM     24  C   UNL     1      -4.336  11.225  28.064  0.00  0.00    +0.176 C 
ATOM     25  O   UNL     1      -4.463  10.267  26.978  0.00  0.00    -0.332 OA
ATOM     26  C   UNL     1      -3.306   9.392  26.767  0.00  0.00    +0.277 C 
ATOM     27  C   UNL     1      -2.940   8.653  28.077  0.00  0.00    +0.110 C 
ATOM     28  C   UNL     1      -2.825   9.627  29.268  0.00  0.00    +0.143 C 
ATOM     29  C   UNL     1      -4.081  10.490  29.393  0.00  0.00    +0.133 C 
BRANCH  29  30
ATOM     30  N   UNL     1      -3.925  11.474  30.476  0.00  0.00    -0.308 N 
ATOM     31  H   UNL     1      -3.284  12.241  30.328  0.00  0.00    +0.149 HD
ATOM     32  C   UNL     1      -4.573  11.418  31.643  0.00  0.00    +0.210 C 
ATOM     33  C   UNL     1      -5.522  10.223  31.848  0.00  0.00    +0.109 C 
ATOM     34  O   UNL     1      -4.434  12.265  32.527  0.00  0.00    -0.276 OA
ENDBRANCH  29  30
BRANCH  26  35
ATOM     35  C   UNL     1      -2.089  10.203  26.275  0.00  0.00    +0.414 C 
ATOM     36  O   UNL     1      -0.947   9.829  26.539  0.00  0.00    -0.240 OA
ATOM     37  O   UNL     1      -2.249  11.231  25.616  0.00  0.00    -0.240 OA
ENDBRANCH  26  35
BRANCH  26  38
ATOM     38  O   UNL     1      -3.668   8.402  25.769  0.00  0.00    -0.343 OA
ATOM     39  C   UNL     1      -4.386   7.251  26.281  0.00  0.00    +0.198 C 
ENDBRANCH  26  38
BRANCH  28  40
ATOM     40  O   UNL     1      -2.637   8.891  30.477  0.00  0.00    -0.390 OA
ATOM     41  H   UNL     1      -2.270   8.028  30.273  0.00  0.00    +0.210 HD
ENDBRANCH  28  40
ENDBRANCH  23  24
BRANCH  23  42
ATOM     42  O   UNL     1      -6.633  11.518  28.840  0.00  0.00    -0.387 OA
ATOM     43  H   UNL     1      -6.250  10.892  29.460  0.00  0.00    +0.210 HD
ENDBRANCH  23  42
ENDBRANCH   1  23
TORSDOF 16
