REMARK VINA RESULT:    -4.243      4.337      9.265
REMARK INTER + INTRA:         -11.618
REMARK INTER:                  -8.806
REMARK INTRA:                  -2.812
REMARK UNBOUND:                -2.785
REMARK  Name = lig_assembled_54.pdb
REMARK  24 active torsions:
REMARK  status: ('A' for Active; 'I' for Inactive)
REMARK    1  A    between atoms: _2  and  _9
REMARK    2  A    between atoms: _4  and  _21
REMARK    3  A    between atoms: _5  and  _14
REMARK    4  A    between atoms: _6  and  _7
REMARK    5  A    between atoms: _6  and  _21
REMARK    6  A    between atoms: _9  and  _10
REMARK    7  A    between atoms: _10  and  _11
REMARK    8  A    between atoms: _11  and  _15
REMARK    9  A    between atoms: _11  and  _16
REMARK   10  A    between atoms: _12  and  _13
REMARK   11  A    between atoms: _12  and  _16
REMARK   12  A    between atoms: _14  and  _15
REMARK   13  A    between atoms: _17  and  _37
REMARK   14  A    between atoms: _19  and  _25
REMARK   15  A    between atoms: _20  and  _24
REMARK   16  A    between atoms: _24  and  _25
REMARK   17  A    between atoms: _27  and  _28
REMARK   18  A    between atoms: _29  and  _30
REMARK   19  A    between atoms: _31  and  _33
REMARK   20  A    between atoms: _33  and  _34
REMARK   21  A    between atoms: _33  and  _35
REMARK   22  A    between atoms: _35  and  _36
REMARK   23  A    between atoms: _35  and  _37
REMARK   24  A    between atoms: _38  and  _40
REMARK                            x       y       z     vdW  Elec       q    Type
REMARK                         _______ _______ _______ _____ _____    ______ ____
ROOT
ATOM      1  C   UNL     1      -4.806   7.099  23.185  0.00  0.00    +0.163 C 
ENDROOT
BRANCH   1   2
ATOM      2  O   UNL     1      -3.614   7.305  22.409  0.00  0.00    -0.388 OA
ATOM      3  H   UNL     1      -3.793   7.101  21.487  0.00  0.00    +0.210 HD
ENDBRANCH   1   2
BRANCH   1   4
ATOM      4  C   UNL     1      -5.280   8.416  23.824  0.00  0.00    +0.175 C 
BRANCH   4   5
ATOM      5  C   UNL     1      -4.106   9.266  24.334  0.00  0.00    +0.176 C 
ATOM      6  O   UNL     1      -4.342   9.555  25.740  0.00  0.00    -0.332 OA
ATOM      7  C   UNL     1      -3.265  10.274  26.428  0.00  0.00    +0.277 C 
ATOM      8  C   UNL     1      -2.921  11.583  25.675  0.00  0.00    +0.110 C 
ATOM      9  C   UNL     1      -2.693  11.330  24.169  0.00  0.00    +0.143 C 
ATOM     10  C   UNL     1      -3.872  10.574  23.556  0.00  0.00    +0.133 C 
BRANCH  10  11
ATOM     11  N   UNL     1      -3.605  10.263  22.142  0.00  0.00    -0.308 N 
ATOM     12  H   UNL     1      -2.812   9.673  21.931  0.00  0.00    +0.149 HD
ATOM     13  C   UNL     1      -4.341  10.709  21.121  0.00  0.00    +0.210 C 
ATOM     14  C   UNL     1      -5.527  11.627  21.475  0.00  0.00    +0.109 C 
ATOM     15  O   UNL     1      -4.103  10.420  19.948  0.00  0.00    -0.276 OA
ENDBRANCH  10  11
BRANCH   7  16
ATOM     16  C   UNL     1      -2.002   9.394  26.537  0.00  0.00    +0.414 C 
ATOM     17  O   UNL     1      -0.888   9.913  26.596  0.00  0.00    -0.240 OA
ATOM     18  O   UNL     1      -2.098   8.167  26.566  0.00  0.00    -0.240 OA
ENDBRANCH   7  16
BRANCH   9  19
ATOM     19  O   UNL     1      -2.529  12.576  23.491  0.00  0.00    -0.390 OA
ATOM     20  H   UNL     1      -2.710  13.298  24.098  0.00  0.00    +0.210 HD
ENDBRANCH   9  19
BRANCH   7  21
ATOM     21  O   UNL     1      -3.735  10.621  27.756  0.00  0.00    -0.343 OA
ATOM     22  C   UNL     1      -3.798  12.044  28.031  0.00  0.00    +0.198 C 
ENDBRANCH   7  21
ENDBRANCH   4   5
BRANCH   4  23
ATOM     23  O   UNL     1      -6.200   8.143  24.900  0.00  0.00    -0.387 OA
ATOM     24  H   UNL     1      -5.710   7.866  25.678  0.00  0.00    +0.210 HD
ENDBRANCH   4  23
ENDBRANCH   1   4
BRANCH   1  25
ATOM     25  C   UNL     1      -5.913   6.534  22.302  0.00  0.00    +0.141 C 
BRANCH  25  28
ATOM     26  C   UNL     1      -6.692   8.000  20.472  0.00  0.00    +0.401 C 
ATOM     27  O   UNL     1      -7.610   8.494  21.131  0.00  0.00    -0.226 OA
ATOM     28  N   UNL     1      -5.854   7.073  20.938  0.00  0.00    -0.279 N 
ATOM     29  H   UNL     1      -5.138   6.721  20.317  0.00  0.00    +0.152 HD
BRANCH  26  30
ATOM     30  O   UNL     1      -6.498   8.429  19.122  0.00  0.00    -0.444 OA
BRANCH  30  31
ATOM     31  C   UNL     1      -6.195   7.299  18.300  0.00  0.00    +0.292 C 
BRANCH  31  33
ATOM     32  N   UNL     1      -3.988   6.722  17.334  0.00  0.00    -0.131 NA
ATOM     33  C   UNL     1      -5.036   7.598  17.436  0.00  0.00    +0.120 A 
ATOM     34  C   UNL     1      -4.796   8.685  16.623  0.00  0.00    +0.137 A 
ATOM     35  N   UNL     1      -3.608   8.393  16.026  0.00  0.00    -0.251 N 
ATOM     36  N   UNL     1      -3.121   7.216  16.460  0.00  0.00    -0.065 NA
BRANCH  35  37
ATOM     37  C   UNL     1      -2.907   9.141  15.002  0.00  0.00    +0.150 C 
BRANCH  37  38
ATOM     38  C   UNL     1      -3.822   9.498  13.840  0.00  0.00    +0.084 C 
BRANCH  38  39
ATOM     39  C   UNL     1      -3.983  11.009  13.633  0.00  0.00    +0.252 C 
BRANCH  39  40
ATOM     40  O   UNL     1      -3.222  11.725  14.608  0.00  0.00    -0.352 OA
BRANCH  40  41
ATOM     41  C   UNL     1      -3.955  12.742  15.288  0.00  0.00    +0.159 C 
ATOM     42  C   UNL     1      -4.202  12.295  16.716  0.00  0.00    +0.034 C 
ENDBRANCH  40  41
ENDBRANCH  39  40
BRANCH  39  43
ATOM     43  O   UNL     1      -5.374  11.321  13.777  0.00  0.00    -0.352 OA
BRANCH  43  44
ATOM     44  C   UNL     1      -6.221  10.300  13.246  0.00  0.00    +0.159 C 
ATOM     45  C   UNL     1      -7.513  10.266  14.037  0.00  0.00    +0.034 C 
ENDBRANCH  43  44
ENDBRANCH  39  43
ENDBRANCH  38  39
ENDBRANCH  37  38
ENDBRANCH  35  37
ENDBRANCH  31  33
ENDBRANCH  30  31
ENDBRANCH  26  30
ENDBRANCH  25  28
ENDBRANCH   1  25
TORSDOF 20
