REMARK VINA RESULT:    -4.714      3.687      7.625
REMARK INTER + INTRA:         -10.169
REMARK INTER:                  -7.786
REMARK INTRA:                  -2.383
REMARK UNBOUND:                -2.010
REMARK  Name = lig_assembled_49.pdb
REMARK  16 active torsions:
REMARK  status: ('A' for Active; 'I' for Inactive)
REMARK    1  A    between atoms: _2  and  _9
REMARK    2  A    between atoms: _4  and  _17
REMARK    3  A    between atoms: _6  and  _7
REMARK    4  A    between atoms: _6  and  _17
REMARK    5  A    between atoms: _13  and  _33
REMARK    6  A    between atoms: _15  and  _21
REMARK    7  A    between atoms: _16  and  _20
REMARK    8  A    between atoms: _20  and  _21
REMARK    9  A    between atoms: _23  and  _24
REMARK   10  A    between atoms: _25  and  _26
REMARK   11  A    between atoms: _27  and  _29
REMARK   12  A    between atoms: _29  and  _30
REMARK   13  A    between atoms: _29  and  _31
REMARK   14  A    between atoms: _31  and  _32
REMARK   15  A    between atoms: _31  and  _33
REMARK   16  A    between atoms: _34  and  _36
REMARK                            x       y       z     vdW  Elec       q    Type
REMARK                         _______ _______ _______ _____ _____    ______ ____
ROOT
ATOM      1  C   UNL     1      -3.317  11.798  23.916  0.00  0.00    +0.175 C 
ENDROOT
BRANCH   1   2
ATOM      2  C   UNL     1      -4.557  12.701  23.837  0.00  0.00    +0.176 C 
ATOM      3  O   UNL     1      -4.172  13.931  23.163  0.00  0.00    -0.332 OA
ATOM      4  C   UNL     1      -5.260  14.878  22.902  0.00  0.00    +0.277 C 
ATOM      5  C   UNL     1      -6.012  15.213  24.214  0.00  0.00    +0.110 C 
ATOM      6  C   UNL     1      -6.414  13.936  24.982  0.00  0.00    +0.143 C 
ATOM      7  C   UNL     1      -5.207  13.022  25.196  0.00  0.00    +0.133 C 
BRANCH   7   8
ATOM      8  N   UNL     1      -5.619  11.770  25.851  0.00  0.00    -0.308 N 
ATOM      9  H   UNL     1      -6.360  11.234  25.421  0.00  0.00    +0.149 HD
ATOM     10  C   UNL     1      -5.078  11.297  26.976  0.00  0.00    +0.210 C 
ATOM     11  C   UNL     1      -3.969  12.150  27.621  0.00  0.00    +0.109 C 
ATOM     12  O   UNL     1      -5.433  10.238  27.495  0.00  0.00    -0.276 OA
ENDBRANCH   7   8
BRANCH   4  13
ATOM     13  C   UNL     1      -6.253  14.300  21.872  0.00  0.00    +0.414 C 
ATOM     14  O   UNL     1      -7.411  14.712  21.829  0.00  0.00    -0.240 OA
ATOM     15  O   UNL     1      -5.895  13.423  21.085  0.00  0.00    -0.240 OA
ENDBRANCH   4  13
BRANCH   6  16
ATOM     16  O   UNL     1      -6.967  14.291  26.250  0.00  0.00    -0.390 OA
ATOM     17  H   UNL     1      -6.464  15.017  26.627  0.00  0.00    +0.210 HD
ENDBRANCH   6  16
BRANCH   4  18
ATOM     18  O   UNL     1      -4.676  16.101  22.385  0.00  0.00    -0.343 OA
ATOM     19  C   UNL     1      -5.541  17.264  22.440  0.00  0.00    +0.198 C 
ENDBRANCH   4  18
ENDBRANCH   1   2
BRANCH   1  20
ATOM     20  O   UNL     1      -2.179  12.555  24.374  0.00  0.00    -0.387 OA
ATOM     21  H   UNL     1      -1.715  12.056  25.051  0.00  0.00    +0.210 HD
ENDBRANCH   1  20
BRANCH   1  22
ATOM     22  C   UNL     1      -3.001  11.131  22.566  0.00  0.00    +0.163 C 
BRANCH  22  23
ATOM     23  O   UNL     1      -3.026  12.093  21.499  0.00  0.00    -0.388 OA
ATOM     24  H   UNL     1      -2.763  12.952  21.836  0.00  0.00    +0.210 HD
ENDBRANCH  22  23
BRANCH  22  25
ATOM     25  C   UNL     1      -4.015  10.024  22.295  0.00  0.00    +0.141 C 
BRANCH  25  28
ATOM     26  C   UNL     1      -4.259   7.891  23.518  0.00  0.00    +0.401 C 
ATOM     27  O   UNL     1      -4.016   7.190  22.533  0.00  0.00    -0.226 OA
ATOM     28  N   UNL     1      -4.286   9.224  23.495  0.00  0.00    -0.279 N 
ATOM     29  H   UNL     1      -4.505   9.711  24.353  0.00  0.00    +0.152 HD
BRANCH  26  30
ATOM     30  O   UNL     1      -4.537   7.258  24.769  0.00  0.00    -0.444 OA
BRANCH  30  31
ATOM     31  C   UNL     1      -3.320   6.768  25.338  0.00  0.00    +0.292 C 
BRANCH  31  33
ATOM     32  N   UNL     1      -2.094   8.531  26.566  0.00  0.00    -0.131 NA
ATOM     33  C   UNL     1      -2.999   7.503  26.575  0.00  0.00    +0.120 A 
ATOM     34  C   UNL     1      -3.472   7.332  27.857  0.00  0.00    +0.137 A 
ATOM     35  N   UNL     1      -2.813   8.281  28.581  0.00  0.00    -0.248 N 
ATOM     36  N   UNL     1      -1.989   9.001  27.800  0.00  0.00    -0.065 NA
BRANCH  35  37
ATOM     37  C   UNL     1      -2.907   8.534  29.998  0.00  0.00    +0.109 C 
ATOM     38  C   UNL     1      -3.354   9.956  30.345  0.00  0.00    +0.027 C 
ATOM     39  C   UNL     1      -3.791   9.829  31.794  0.00  0.00    +0.002 C 
ATOM     40  C   UNL     1      -4.505   8.485  31.854  0.00  0.00    +0.002 C 
ATOM     41  C   UNL     1      -3.895   7.626  30.744  0.00  0.00    +0.027 C 
ENDBRANCH  35  37
ENDBRANCH  31  33
ENDBRANCH  30  31
ENDBRANCH  26  30
ENDBRANCH  25  28
ENDBRANCH  22  25
ENDBRANCH   1  22
TORSDOF 14
