REMARK VINA RESULT:    -4.604      3.152      8.981
REMARK INTER + INTRA:         -12.510
REMARK INTER:                  -8.209
REMARK INTRA:                  -4.301
REMARK UNBOUND:                -3.062
REMARK  Name = lig_assembled_74.pdb
REMARK  24 active torsions:
REMARK  status: ('A' for Active; 'I' for Inactive)
REMARK    1  A    between atoms: _2  and  _9
REMARK    2  A    between atoms: _4  and  _22
REMARK    3  A    between atoms: _5  and  _14
REMARK    4  A    between atoms: _6  and  _7
REMARK    5  A    between atoms: _6  and  _22
REMARK    6  A    between atoms: _9  and  _10
REMARK    7  A    between atoms: _10  and  _11
REMARK    8  A    between atoms: _10  and  _13
REMARK    9  A    between atoms: _11  and  _12
REMARK   10  A    between atoms: _12  and  _16
REMARK   11  A    between atoms: _13  and  _14
REMARK   12  A    between atoms: _14  and  _15
REMARK   13  A    between atoms: _18  and  _38
REMARK   14  A    between atoms: _20  and  _26
REMARK   15  A    between atoms: _21  and  _25
REMARK   16  A    between atoms: _25  and  _26
REMARK   17  A    between atoms: _28  and  _29
REMARK   18  A    between atoms: _30  and  _31
REMARK   19  A    between atoms: _32  and  _34
REMARK   20  A    between atoms: _34  and  _35
REMARK   21  A    between atoms: _34  and  _36
REMARK   22  A    between atoms: _36  and  _37
REMARK   23  A    between atoms: _36  and  _38
REMARK   24  A    between atoms: _39  and  _41
REMARK                            x       y       z     vdW  Elec       q    Type
REMARK                         _______ _______ _______ _____ _____    ______ ____
ROOT
ATOM      1  C   UNL     1      -2.256  10.018  27.360  0.00  0.00    +0.163 C 
ENDROOT
BRANCH   1   2
ATOM      2  O   UNL     1      -2.467   9.477  26.046  0.00  0.00    -0.388 OA
ATOM      3  H   UNL     1      -2.336   8.526  26.066  0.00  0.00    +0.210 HD
ENDBRANCH   1   2
BRANCH   1   4
ATOM      4  C   UNL     1      -3.469  10.847  27.816  0.00  0.00    +0.175 C 
BRANCH   4   5
ATOM      5  C   UNL     1      -4.281  11.384  26.627  0.00  0.00    +0.176 C 
ATOM      6  O   UNL     1      -3.356  12.027  25.708  0.00  0.00    -0.332 OA
ATOM      7  C   UNL     1      -3.942  12.511  24.454  0.00  0.00    +0.277 C 
ATOM      8  C   UNL     1      -5.134  13.455  24.743  0.00  0.00    +0.110 C 
ATOM      9  C   UNL     1      -6.130  12.826  25.741  0.00  0.00    +0.143 C 
ATOM     10  C   UNL     1      -5.414  12.356  27.007  0.00  0.00    +0.133 C 
BRANCH  10  11
ATOM     11  N   UNL     1      -6.357  11.681  27.912  0.00  0.00    -0.308 N 
ATOM     12  H   UNL     1      -6.763  10.808  27.605  0.00  0.00    +0.149 HD
ATOM     13  C   UNL     1      -6.712  12.146  29.113  0.00  0.00    +0.210 C 
ATOM     14  C   UNL     1      -6.097  13.492  29.541  0.00  0.00    +0.109 C 
ATOM     15  O   UNL     1      -7.494  11.552  29.856  0.00  0.00    -0.276 OA
ENDBRANCH  10  11
BRANCH   7  16
ATOM     16  C   UNL     1      -4.418  11.330  23.582  0.00  0.00    +0.414 C 
ATOM     17  O   UNL     1      -3.749  10.300  23.514  0.00  0.00    -0.240 OA
ATOM     18  O   UNL     1      -5.470  11.408  22.947  0.00  0.00    -0.240 OA
ENDBRANCH   7  16
BRANCH   9  19
ATOM     19  O   UNL     1      -7.128  13.785  26.094  0.00  0.00    -0.390 OA
ATOM     20  H   UNL     1      -7.867  13.716  25.485  0.00  0.00    +0.210 HD
ENDBRANCH   9  19
BRANCH   7  21
ATOM     21  O   UNL     1      -2.924  13.263  23.744  0.00  0.00    -0.343 OA
ATOM     22  C   UNL     1      -3.416  14.072  22.646  0.00  0.00    +0.198 C 
ENDBRANCH   7  21
ENDBRANCH   4   5
BRANCH   4  23
ATOM     23  O   UNL     1      -3.040  11.936  28.656  0.00  0.00    -0.387 OA
ATOM     24  H   UNL     1      -3.339  11.784  29.556  0.00  0.00    +0.210 HD
ENDBRANCH   4  23
ENDBRANCH   1   4
BRANCH   1  25
ATOM     25  C   UNL     1      -2.007   8.889  28.356  0.00  0.00    +0.141 C 
BRANCH  25  28
ATOM     26  C   UNL     1      -3.381   7.996  30.205  0.00  0.00    +0.401 C 
ATOM     27  O   UNL     1      -3.254   6.820  29.856  0.00  0.00    -0.226 OA
ATOM     28  N   UNL     1      -2.838   9.028  29.559  0.00  0.00    -0.279 N 
ATOM     29  H   UNL     1      -3.006   9.957  29.917  0.00  0.00    +0.152 HD
BRANCH  26  30
ATOM     30  O   UNL     1      -4.157   8.295  31.368  0.00  0.00    -0.444 OA
BRANCH  30  31
ATOM     31  C   UNL     1      -4.832   9.542  31.184  0.00  0.00    +0.292 C 
BRANCH  31  33
ATOM     32  N   UNL     1      -3.990  10.004  33.473  0.00  0.00    -0.131 NA
ATOM     33  C   UNL     1      -4.810  10.337  32.428  0.00  0.00    +0.120 A 
ATOM     34  C   UNL     1      -5.471  11.508  32.730  0.00  0.00    +0.137 A 
ATOM     35  N   UNL     1      -4.871  11.925  33.885  0.00  0.00    -0.251 N 
ATOM     36  N   UNL     1      -4.055  10.974  34.375  0.00  0.00    -0.065 NA
BRANCH  35  37
ATOM     37  C   UNL     1      -4.780  13.286  34.375  0.00  0.00    +0.149 C 
BRANCH  37  38
ATOM     38  C   UNL     1      -3.932  14.249  33.516  0.00  0.00    +0.021 C 
BRANCH  38  39
ATOM     39  C   UNL     1      -2.414  13.995  33.628  0.00  0.00    +0.125 C 
BRANCH  39  40
ATOM     40  C   UNL     1      -1.784  13.371  32.400  0.00  0.00    +0.305 C 
ATOM     41  O   UNL     1      -1.231  13.990  31.506  0.00  0.00    -0.251 OA
BRANCH  40  42
ATOM     42  O   UNL     1      -1.830  12.026  32.413  0.00  0.00    -0.481 OA
ATOM     43  H   UNL     1      -1.984  11.603  31.548  0.00  0.00    +0.295 HD
ENDBRANCH  40  42
ENDBRANCH  39  40
ENDBRANCH  38  39
BRANCH  38  44
ATOM     44  C   UNL     1      -4.330  15.717  33.852  0.00  0.00    +0.009 C 
BRANCH  44  45
ATOM     45  C   UNL     1      -4.894  16.547  32.679  0.00  0.00    -0.017 C 
ATOM     46  C   UNL     1      -4.079  16.364  31.397  0.00  0.00    +0.007 C 
ATOM     47  C   UNL     1      -6.353  16.167  32.403  0.00  0.00    +0.007 C 
ENDBRANCH  44  45
ENDBRANCH  38  44
ENDBRANCH  37  38
ENDBRANCH  35  37
ENDBRANCH  31  33
ENDBRANCH  30  31
ENDBRANCH  26  30
ENDBRANCH  25  28
ENDBRANCH   1  25
TORSDOF 20
