REMARK VINA RESULT:    -5.363      3.779      6.718
REMARK INTER + INTRA:         -11.900
REMARK INTER:                  -8.664
REMARK INTRA:                  -3.235
REMARK UNBOUND:                -2.303
REMARK  Name = lig_assembled_4.pdb
REMARK  19 active torsions:
REMARK  status: ('A' for Active; 'I' for Inactive)
REMARK    1  A    between atoms: _2  and  _9
REMARK    2  A    between atoms: _4  and  _21
REMARK    3  A    between atoms: _6  and  _7
REMARK    4  A    between atoms: _6  and  _21
REMARK    5  A    between atoms: _10  and  _11
REMARK    6  A    between atoms: _11  and  _12
REMARK    7  A    between atoms: _11  and  _13
REMARK    8  A    between atoms: _17  and  _37
REMARK    9  A    between atoms: _19  and  _25
REMARK   10  A    between atoms: _20  and  _24
REMARK   11  A    between atoms: _24  and  _25
REMARK   12  A    between atoms: _27  and  _28
REMARK   13  A    between atoms: _29  and  _30
REMARK   14  A    between atoms: _31  and  _33
REMARK   15  A    between atoms: _33  and  _34
REMARK   16  A    between atoms: _33  and  _35
REMARK   17  A    between atoms: _35  and  _36
REMARK   18  A    between atoms: _35  and  _37
REMARK   19  A    between atoms: _38  and  _40
REMARK                            x       y       z     vdW  Elec       q    Type
REMARK                         _______ _______ _______ _____ _____    ______ ____
ROOT
ATOM      1  C   UNL     1      -2.317   9.659  27.048  0.00  0.00    +0.163 C 
ENDROOT
BRANCH   1   2
ATOM      2  O   UNL     1      -1.179   9.791  26.181  0.00  0.00    -0.388 OA
ATOM      3  H   UNL     1      -0.437   9.304  26.549  0.00  0.00    +0.210 HD
ENDBRANCH   1   2
BRANCH   1   4
ATOM      4  C   UNL     1      -1.866   9.223  28.439  0.00  0.00    +0.141 C 
BRANCH   4   7
ATOM      5  C   UNL     1      -3.246   9.487  30.471  0.00  0.00    +0.401 C 
ATOM      6  O   UNL     1      -3.479   8.281  30.584  0.00  0.00    -0.226 OA
ATOM      7  N   UNL     1      -2.506  10.015  29.495  0.00  0.00    -0.279 N 
ATOM      8  H   UNL     1      -2.380  11.018  29.482  0.00  0.00    +0.152 HD
BRANCH   5   9
ATOM      9  O   UNL     1      -3.794  10.393  31.432  0.00  0.00    -0.444 OA
BRANCH   9  10
ATOM     10  C   UNL     1      -2.786  11.318  31.847  0.00  0.00    +0.292 C 
BRANCH  10  12
ATOM     11  N   UNL     1      -4.235  12.864  33.113  0.00  0.00    -0.131 NA
ATOM     12  C   UNL     1      -3.368  12.651  32.086  0.00  0.00    +0.121 A 
ATOM     13  C   UNL     1      -3.212  13.822  31.378  0.00  0.00    +0.143 A 
ATOM     14  N   UNL     1      -4.118  14.700  31.941  0.00  0.00    -0.219 N 
ATOM     15  N   UNL     1      -4.662  14.117  33.031  0.00  0.00    -0.060 NA
BRANCH  14  16
ATOM     16  C   UNL     1      -4.472  16.002  31.474  0.00  0.00    +0.070 A 
ATOM     17  C   UNL     1      -5.367  16.225  30.392  0.00  0.00    -0.019 A 
ATOM     18  C   UNL     1      -5.606  17.565  30.011  0.00  0.00    +0.006 A 
ATOM     19  C   UNL     1      -4.986  18.640  30.650  0.00  0.00    +0.000 A 
ATOM     20  C   UNL     1      -4.121  18.410  31.708  0.00  0.00    +0.002 A 
ATOM     21  C   UNL     1      -3.864  17.103  32.117  0.00  0.00    +0.028 A 
BRANCH  17  22
ATOM     22  C   UNL     1      -6.075  15.114  29.614  0.00  0.00    +0.015 C 
ATOM     23  C   UNL     1      -6.514  15.493  28.191  0.00  0.00    +0.012 C 
ATOM     24  C   UNL     1      -7.278  14.604  30.410  0.00  0.00    +0.012 C 
ENDBRANCH  17  22
ENDBRANCH  14  16
ENDBRANCH  10  12
ENDBRANCH   9  10
ENDBRANCH   5   9
ENDBRANCH   4   7
ENDBRANCH   1   4
BRANCH   1  25
ATOM     25  C   UNL     1      -3.319   8.634  26.488  0.00  0.00    +0.175 C 
BRANCH  25  26
ATOM     26  C   UNL     1      -4.200   9.233  25.383  0.00  0.00    +0.176 C 
ATOM     27  O   UNL     1      -3.394   9.341  24.177  0.00  0.00    -0.332 OA
ATOM     28  C   UNL     1      -4.104   9.798  22.979  0.00  0.00    +0.277 C 
ATOM     29  C   UNL     1      -4.818  11.145  23.253  0.00  0.00    +0.110 C 
ATOM     30  C   UNL     1      -5.663  11.089  24.543  0.00  0.00    +0.143 C 
ATOM     31  C   UNL     1      -4.827  10.597  25.726  0.00  0.00    +0.133 C 
BRANCH  31  32
ATOM     32  N   UNL     1      -5.664  10.465  26.929  0.00  0.00    -0.308 N 
ATOM     33  H   UNL     1      -6.356   9.729  26.943  0.00  0.00    +0.149 HD
ATOM     34  C   UNL     1      -5.568  11.254  28.003  0.00  0.00    +0.210 C 
ATOM     35  C   UNL     1      -4.522  12.382  27.939  0.00  0.00    +0.109 C 
ATOM     36  O   UNL     1      -6.273  11.110  29.002  0.00  0.00    -0.276 OA
ENDBRANCH  31  32
BRANCH  28  37
ATOM     37  C   UNL     1      -5.139   8.750  22.522  0.00  0.00    +0.414 C 
ATOM     38  O   UNL     1      -4.896   7.549  22.634  0.00  0.00    -0.240 OA
ATOM     39  O   UNL     1      -6.217   9.104  22.043  0.00  0.00    -0.240 OA
ENDBRANCH  28  37
BRANCH  30  40
ATOM     40  O   UNL     1      -6.178  12.387  24.839  0.00  0.00    -0.390 OA
ATOM     41  H   UNL     1      -5.710  12.754  25.592  0.00  0.00    +0.210 HD
ENDBRANCH  30  40
BRANCH  28  42
ATOM     42  O   UNL     1      -3.124  10.006  21.929  0.00  0.00    -0.343 OA
ATOM     43  C   UNL     1      -3.370  11.156  21.081  0.00  0.00    +0.198 C 
ENDBRANCH  28  42
ENDBRANCH  25  26
BRANCH  25  44
ATOM     44  O   UNL     1      -4.141   8.112  27.551  0.00  0.00    -0.387 OA
ATOM     45  H   UNL     1      -5.007   7.884  27.204  0.00  0.00    +0.210 HD
ENDBRANCH  25  44
ENDBRANCH   1  25
TORSDOF 15
