REMARK VINA RESULT:    -4.061      2.428      3.267
REMARK INTER + INTRA:         -10.425
REMARK INTER:                  -7.385
REMARK INTRA:                  -3.040
REMARK UNBOUND:                -3.040
REMARK  Name = lig_assembled_1.pdb
REMARK  18 active torsions:
REMARK  status: ('A' for Active; 'I' for Inactive)
REMARK    1  A    between atoms: _2  and  _9
REMARK    2  A    between atoms: _4  and  _15
REMARK    3  A    between atoms: _5  and  _9
REMARK    4  A    between atoms: _5  and  _10
REMARK    5  A    between atoms: _6  and  _7
REMARK    6  A    between atoms: _6  and  _15
REMARK    7  A    between atoms: _11  and  _31
REMARK    8  A    between atoms: _13  and  _19
REMARK    9  A    between atoms: _14  and  _18
REMARK   10  A    between atoms: _18  and  _19
REMARK   11  A    between atoms: _21  and  _22
REMARK   12  A    between atoms: _23  and  _24
REMARK   13  A    between atoms: _25  and  _27
REMARK   14  A    between atoms: _27  and  _28
REMARK   15  A    between atoms: _27  and  _29
REMARK   16  A    between atoms: _29  and  _30
REMARK   17  A    between atoms: _29  and  _31
REMARK   18  A    between atoms: _32  and  _34
REMARK                            x       y       z     vdW  Elec       q    Type
REMARK                         _______ _______ _______ _____ _____    ______ ____
ROOT
ATOM      1  C   UNL     1      -4.155  11.071  28.807  0.00  0.00    +0.175 C 
ENDROOT
BRANCH   1   2
ATOM      2  C   UNL     1      -3.946  10.346  30.144  0.00  0.00    +0.176 C 
ATOM      3  O   UNL     1      -5.004   9.359  30.288  0.00  0.00    -0.332 OA
ATOM      4  C   UNL     1      -4.906   8.491  31.466  0.00  0.00    +0.277 C 
ATOM      5  C   UNL     1      -4.803   9.340  32.756  0.00  0.00    +0.110 C 
ATOM      6  C   UNL     1      -3.711  10.425  32.639  0.00  0.00    +0.143 C 
ATOM      7  C   UNL     1      -3.908  11.267  31.378  0.00  0.00    +0.133 C 
BRANCH   7   8
ATOM      8  N   UNL     1      -2.813  12.239  31.231  0.00  0.00    -0.308 N 
ATOM      9  H   UNL     1      -1.895  11.885  31.002  0.00  0.00    +0.149 HD
ATOM     10  C   UNL     1      -2.953  13.559  31.382  0.00  0.00    +0.210 C 
ATOM     11  C   UNL     1      -4.359  14.065  31.756  0.00  0.00    +0.109 C 
ATOM     12  O   UNL     1      -2.021  14.351  31.239  0.00  0.00    -0.276 OA
ENDBRANCH   7   8
BRANCH   4  13
ATOM     13  C   UNL     1      -3.679   7.563  31.360  0.00  0.00    +0.414 C 
ATOM     14  O   UNL     1      -3.124   7.150  32.377  0.00  0.00    -0.240 OA
ATOM     15  O   UNL     1      -3.243   7.227  30.258  0.00  0.00    -0.240 OA
ENDBRANCH   4  13
BRANCH   4  16
ATOM     16  O   UNL     1      -6.116   7.695  31.538  0.00  0.00    -0.343 OA
ATOM     17  C   UNL     1      -6.911   7.676  30.325  0.00  0.00    +0.198 C 
ENDBRANCH   4  16
BRANCH   6  18
ATOM     18  O   UNL     1      -3.752  11.276  33.785  0.00  0.00    -0.390 OA
ATOM     19  H   UNL     1      -3.264  12.082  33.603  0.00  0.00    +0.210 HD
ENDBRANCH   6  18
ENDBRANCH   1   2
BRANCH   1  20
ATOM     20  O   UNL     1      -2.937  11.727  28.401  0.00  0.00    -0.387 OA
ATOM     21  H   UNL     1      -3.131  12.631  28.142  0.00  0.00    +0.210 HD
ENDBRANCH   1  20
BRANCH   1  22
ATOM     22  C   UNL     1      -5.308  12.088  28.874  0.00  0.00    +0.163 C 
BRANCH  22  23
ATOM     23  O   UNL     1      -6.581  11.423  28.871  0.00  0.00    -0.388 OA
ATOM     24  H   UNL     1      -7.168  11.856  28.246  0.00  0.00    +0.210 HD
ENDBRANCH  22  23
BRANCH  22  25
ATOM     25  C   UNL     1      -5.215  13.043  27.689  0.00  0.00    +0.141 C 
BRANCH  25  28
ATOM     26  C   UNL     1      -5.026  12.860  25.232  0.00  0.00    +0.401 C 
ATOM     27  O   UNL     1      -5.511  13.973  25.017  0.00  0.00    -0.226 OA
ATOM     28  N   UNL     1      -4.856  12.343  26.449  0.00  0.00    -0.279 N 
ATOM     29  H   UNL     1      -4.458  11.417  26.523  0.00  0.00    +0.152 HD
BRANCH  26  30
ATOM     30  O   UNL     1      -4.617  12.056  24.123  0.00  0.00    -0.444 OA
BRANCH  30  31
ATOM     31  C   UNL     1      -3.216  11.785  24.219  0.00  0.00    +0.292 C 
BRANCH  31  33
ATOM     32  N   UNL     1      -1.887  10.477  25.850  0.00  0.00    -0.131 NA
ATOM     33  C   UNL     1      -2.980  10.576  25.030  0.00  0.00    +0.120 A 
ATOM     34  C   UNL     1      -3.721   9.419  25.127  0.00  0.00    +0.137 A 
ATOM     35  N   UNL     1      -3.023   8.657  26.015  0.00  0.00    -0.249 N 
ATOM     36  N   UNL     1      -1.921   9.292  26.444  0.00  0.00    -0.065 NA
BRANCH  35  37
ATOM     37  C   UNL     1      -3.349   7.334  26.500  0.00  0.00    +0.173 C 
BRANCH  37  38
ATOM     38  C   UNL     1      -2.111   6.483  26.760  0.00  0.00    +0.179 C 
BRANCH  38  39
ATOM     39  O   UNL     1      -1.540   6.781  28.033  0.00  0.00    -0.393 OA
ATOM     40  H   UNL     1      -1.401   7.747  28.063  0.00  0.00    +0.209 HD
ENDBRANCH  38  39
ENDBRANCH  37  38
ENDBRANCH  35  37
ENDBRANCH  31  33
ENDBRANCH  30  31
ENDBRANCH  26  30
ENDBRANCH  25  28
ENDBRANCH  22  25
ENDBRANCH   1  22
TORSDOF 16
