REMARK VINA RESULT:    -4.627      3.541      9.207
REMARK INTER + INTRA:         -10.869
REMARK INTER:                  -7.718
REMARK INTRA:                  -3.151
REMARK UNBOUND:                -2.589
REMARK  Name = lig_assembled_82.pdb
REMARK  19 active torsions:
REMARK  status: ('A' for Active; 'I' for Inactive)
REMARK    1  A    between atoms: _2  and  _9
REMARK    2  A    between atoms: _4  and  _22
REMARK    3  A    between atoms: _5  and  _16
REMARK    4  A    between atoms: _6  and  _7
REMARK    5  A    between atoms: _6  and  _22
REMARK    6  A    between atoms: _9  and  _10
REMARK    7  A    between atoms: _16  and  _17
REMARK    8  A    between atoms: _18  and  _38
REMARK    9  A    between atoms: _20  and  _26
REMARK   10  A    between atoms: _21  and  _25
REMARK   11  A    between atoms: _25  and  _26
REMARK   12  A    between atoms: _28  and  _29
REMARK   13  A    between atoms: _30  and  _31
REMARK   14  A    between atoms: _32  and  _34
REMARK   15  A    between atoms: _34  and  _35
REMARK   16  A    between atoms: _34  and  _36
REMARK   17  A    between atoms: _36  and  _37
REMARK   18  A    between atoms: _36  and  _38
REMARK   19  A    between atoms: _39  and  _41
REMARK                            x       y       z     vdW  Elec       q    Type
REMARK                         _______ _______ _______ _____ _____    ______ ____
ROOT
ATOM      1  C   UNL     1      -7.321  14.177  27.071  0.00  0.00    +0.163 C 
ENDROOT
BRANCH   1   2
ATOM      2  O   UNL     1      -7.344  15.606  26.926  0.00  0.00    -0.388 OA
ATOM      3  H   UNL     1      -7.318  16.017  27.794  0.00  0.00    +0.210 HD
ENDBRANCH   1   2
BRANCH   1   4
ATOM      4  C   UNL     1      -7.134  13.803  28.538  0.00  0.00    +0.141 C 
BRANCH   4   7
ATOM      5  C   UNL     1      -5.797  15.227  30.051  0.00  0.00    +0.401 C 
ATOM      6  O   UNL     1      -6.780  15.737  30.593  0.00  0.00    -0.226 OA
ATOM      7  N   UNL     1      -5.870  14.319  29.077  0.00  0.00    -0.279 N 
ATOM      8  H   UNL     1      -5.007  13.966  28.688  0.00  0.00    +0.152 HD
BRANCH   5   9
ATOM      9  O   UNL     1      -4.489  15.621  30.473  0.00  0.00    -0.444 OA
BRANCH   9  10
ATOM     10  C   UNL     1      -4.336  15.351  31.869  0.00  0.00    +0.292 C 
BRANCH  10  12
ATOM     11  N   UNL     1      -2.170  14.182  32.123  0.00  0.00    -0.131 NA
ATOM     12  C   UNL     1      -3.544  14.136  32.085  0.00  0.00    +0.120 A 
ATOM     13  C   UNL     1      -3.943  12.824  32.266  0.00  0.00    +0.137 A 
ATOM     14  N   UNL     1      -2.774  12.118  32.276  0.00  0.00    -0.247 N 
ATOM     15  N   UNL     1      -1.713  12.947  32.280  0.00  0.00    -0.065 NA
BRANCH  14  16
ATOM     16  C   UNL     1      -2.584  10.667  32.189  0.00  0.00    +0.176 C 
BRANCH  16  17
ATOM     17  C   UNL     1      -3.319  10.055  31.021  0.00  0.00    -0.049 C 
ATOM     18  C   UNL     1      -2.804  10.345  29.646  0.00  0.00    +0.023 C 
ATOM     19  C   UNL     1      -2.888   9.193  28.546  0.00  0.00    -0.025 C 
ATOM     20  C   UNL     1      -2.773   7.669  28.670  0.00  0.00    +0.012 C 
ATOM     21  C   UNL     1      -4.433   9.609  28.546  0.00  0.00    -0.000 C 
ATOM     22  C   UNL     1      -5.246   9.095  29.775  0.00  0.00    +0.031 C 
ATOM     23  C   UNL     1      -1.838   9.614  27.487  0.00  0.00    +0.012 C 
ATOM     24  C   UNL     1      -3.940  11.057  28.806  0.00  0.00    +0.012 C 
ATOM     25  C   UNL     1      -4.501   9.413  31.062  0.00  0.00    -0.025 C 
ENDBRANCH  16  17
ENDBRANCH  14  16
ENDBRANCH  10  12
ENDBRANCH   9  10
ENDBRANCH   5   9
ENDBRANCH   4   7
ENDBRANCH   1   4
BRANCH   1  26
ATOM     26  C   UNL     1      -6.188  13.558  26.234  0.00  0.00    +0.175 C 
BRANCH  26  27
ATOM     27  C   UNL     1      -6.001  14.278  24.891  0.00  0.00    +0.176 C 
ATOM     28  O   UNL     1      -7.313  14.452  24.290  0.00  0.00    -0.332 OA
ATOM     29  C   UNL     1      -7.342  15.220  23.042  0.00  0.00    +0.277 C 
ATOM     30  C   UNL     1      -6.369  14.607  22.006  0.00  0.00    +0.110 C 
ATOM     31  C   UNL     1      -4.967  14.375  22.609  0.00  0.00    +0.143 C 
ATOM     32  C   UNL     1      -5.055  13.568  23.905  0.00  0.00    +0.133 C 
BRANCH  32  33
ATOM     33  N   UNL     1      -3.724  13.428  24.516  0.00  0.00    -0.308 N 
ATOM     34  H   UNL     1      -3.255  14.269  24.823  0.00  0.00    +0.149 HD
ATOM     35  C   UNL     1      -3.094  12.263  24.690  0.00  0.00    +0.210 C 
ATOM     36  C   UNL     1      -3.824  11.003  24.188  0.00  0.00    +0.109 C 
ATOM     37  O   UNL     1      -1.985  12.174  25.218  0.00  0.00    -0.276 OA
ENDBRANCH  32  33
BRANCH  29  38
ATOM     38  C   UNL     1      -6.962  16.694  23.298  0.00  0.00    +0.414 C 
ATOM     39  O   UNL     1      -6.431  17.360  22.411  0.00  0.00    -0.240 OA
ATOM     40  O   UNL     1      -7.186  17.215  24.391  0.00  0.00    -0.240 OA
ENDBRANCH  29  38
BRANCH  29  41
ATOM     41  O   UNL     1      -8.688  15.150  22.503  0.00  0.00    -0.343 OA
ATOM     42  C   UNL     1      -8.765  15.097  21.056  0.00  0.00    +0.198 C 
ENDBRANCH  29  41
BRANCH  31  43
ATOM     43  O   UNL     1      -4.150  13.673  21.672  0.00  0.00    -0.390 OA
ATOM     44  H   UNL     1      -3.302  14.116  21.591  0.00  0.00    +0.210 HD
ENDBRANCH  31  43
ENDBRANCH  26  27
BRANCH  26  45
ATOM     45  O   UNL     1      -6.443  12.156  26.014  0.00  0.00    -0.387 OA
ATOM     46  H   UNL     1      -6.292  11.671  26.830  0.00  0.00    +0.210 HD
ENDBRANCH  26  45
ENDBRANCH   1  26
TORSDOF 15
