REMARK VINA RESULT:    -4.741      2.639      5.548
REMARK INTER + INTRA:         -11.273
REMARK INTER:                  -8.399
REMARK INTRA:                  -2.874
REMARK UNBOUND:                -3.067
REMARK  Name = lig_assembled_8.pdb
REMARK  16 active torsions:
REMARK  status: ('A' for Active; 'I' for Inactive)
REMARK    1  A    between atoms: _2  and  _9
REMARK    2  A    between atoms: _4  and  _18
REMARK    3  A    between atoms: _6  and  _7
REMARK    4  A    between atoms: _6  and  _18
REMARK    5  A    between atoms: _14  and  _34
REMARK    6  A    between atoms: _16  and  _22
REMARK    7  A    between atoms: _17  and  _21
REMARK    8  A    between atoms: _21  and  _22
REMARK    9  A    between atoms: _24  and  _25
REMARK   10  A    between atoms: _26  and  _27
REMARK   11  A    between atoms: _28  and  _30
REMARK   12  A    between atoms: _30  and  _31
REMARK   13  A    between atoms: _30  and  _32
REMARK   14  A    between atoms: _32  and  _33
REMARK   15  A    between atoms: _32  and  _34
REMARK   16  A    between atoms: _35  and  _37
REMARK                            x       y       z     vdW  Elec       q    Type
REMARK                         _______ _______ _______ _____ _____    ______ ____
ROOT
ATOM      1  C   UNL     1      -6.604   8.790  23.147  0.00  0.00    +0.163 C 
ENDROOT
BRANCH   1   2
ATOM      2  O   UNL     1      -6.336   9.068  24.532  0.00  0.00    -0.388 OA
ATOM      3  H   UNL     1      -5.606   9.688  24.599  0.00  0.00    +0.210 HD
ENDBRANCH   1   2
BRANCH   1   4
ATOM      4  C   UNL     1      -5.606   7.765  22.618  0.00  0.00    +0.141 C 
BRANCH   4   7
ATOM      5  C   UNL     1      -3.636   6.520  23.440  0.00  0.00    +0.401 C 
ATOM      6  O   UNL     1      -3.619   5.734  22.490  0.00  0.00    -0.226 OA
ATOM      7  N   UNL     1      -4.533   7.497  23.583  0.00  0.00    -0.279 N 
ATOM      8  H   UNL     1      -4.470   8.085  24.402  0.00  0.00    +0.152 HD
BRANCH   5   9
ATOM      9  O   UNL     1      -2.646   6.393  24.464  0.00  0.00    -0.444 OA
BRANCH   9  10
ATOM     10  C   UNL     1      -3.288   6.279  25.737  0.00  0.00    +0.292 C 
BRANCH  10  12
ATOM     11  N   UNL     1      -1.753   8.012  26.592  0.00  0.00    -0.131 NA
ATOM     12  C   UNL     1      -2.996   7.464  26.564  0.00  0.00    +0.121 A 
ATOM     13  C   UNL     1      -3.822   8.195  27.386  0.00  0.00    +0.143 A 
ATOM     14  N   UNL     1      -3.034   9.215  27.891  0.00  0.00    -0.219 N 
ATOM     15  N   UNL     1      -1.785   9.062  27.399  0.00  0.00    -0.060 NA
BRANCH  14  16
ATOM     16  C   UNL     1      -3.422  10.277  28.765  0.00  0.00    +0.081 A 
ATOM     17  C   UNL     1      -3.728  11.532  28.192  0.00  0.00    +0.029 A 
ATOM     18  C   UNL     1      -4.093  12.628  28.979  0.00  0.00    +0.002 A 
ATOM     19  C   UNL     1      -4.163  12.498  30.357  0.00  0.00    +0.001 A 
ATOM     20  C   UNL     1      -3.873  11.270  30.946  0.00  0.00    +0.017 A 
ATOM     21  C   UNL     1      -3.506  10.155  30.167  0.00  0.00    +0.043 A 
ATOM     22 BR   UNL     1      -3.165   8.589  31.197  0.00  0.00    -0.048 Br
ENDBRANCH  14  16
ENDBRANCH  10  12
ENDBRANCH   9  10
ENDBRANCH   5   9
ENDBRANCH   4   7
ENDBRANCH   1   4
BRANCH   1  23
ATOM     23  C   UNL     1      -6.520  10.073  22.303  0.00  0.00    +0.175 C 
BRANCH  23  24
ATOM     24  C   UNL     1      -5.197  10.823  22.520  0.00  0.00    +0.176 C 
ATOM     25  O   UNL     1      -5.360  11.692  23.674  0.00  0.00    -0.332 OA
ATOM     26  C   UNL     1      -4.157  12.414  24.099  0.00  0.00    +0.277 C 
ATOM     27  C   UNL     1      -3.563  13.219  22.917  0.00  0.00    +0.110 C 
ATOM     28  C   UNL     1      -3.401  12.344  21.657  0.00  0.00    +0.143 C 
ATOM     29  C   UNL     1      -4.711  11.637  21.307  0.00  0.00    +0.133 C 
BRANCH  29  30
ATOM     30  N   UNL     1      -4.521  10.740  20.156  0.00  0.00    -0.308 N 
ATOM     31  H   UNL     1      -3.801  10.034  20.223  0.00  0.00    +0.149 HD
ATOM     32  C   UNL     1      -5.237  10.797  19.030  0.00  0.00    +0.210 C 
ATOM     33  C   UNL     1      -6.309  11.901  18.950  0.00  0.00    +0.109 C 
ATOM     34  O   UNL     1      -5.066  10.022  18.089  0.00  0.00    -0.276 OA
ENDBRANCH  29  30
BRANCH  26  35
ATOM     35  C   UNL     1      -3.095  11.435  24.642  0.00  0.00    +0.414 C 
ATOM     36  O   UNL     1      -2.093  11.862  25.215  0.00  0.00    -0.240 OA
ATOM     37  O   UNL     1      -3.239  10.219  24.506  0.00  0.00    -0.240 OA
ENDBRANCH  26  35
BRANCH  28  38
ATOM     38  O   UNL     1      -2.996  13.157  20.555  0.00  0.00    -0.390 OA
ATOM     39  H   UNL     1      -2.067  13.002  20.366  0.00  0.00    +0.210 HD
ENDBRANCH  28  38
BRANCH  26  40
ATOM     40  O   UNL     1      -4.539  13.347  25.142  0.00  0.00    -0.343 OA
ATOM     41  C   UNL     1      -5.929  13.276  25.549  0.00  0.00    +0.198 C 
ENDBRANCH  26  40
ENDBRANCH  23  24
BRANCH  23  42
ATOM     42  O   UNL     1      -7.635  10.937  22.600  0.00  0.00    -0.387 OA
ATOM     43  H   UNL     1      -7.469  11.403  23.423  0.00  0.00    +0.210 HD
ENDBRANCH  23  42
ENDBRANCH   1  23
TORSDOF 14
