REMARK VINA RESULT:    -4.572      4.972      7.928
REMARK INTER + INTRA:         -10.421
REMARK INTER:                  -7.692
REMARK INTRA:                  -2.729
REMARK UNBOUND:                -2.508
REMARK  Name = lig_assembled_48.pdb
REMARK  16 active torsions:
REMARK  status: ('A' for Active; 'I' for Inactive)
REMARK    1  A    between atoms: _2  and  _9
REMARK    2  A    between atoms: _4  and  _18
REMARK    3  A    between atoms: _6  and  _7
REMARK    4  A    between atoms: _6  and  _18
REMARK    5  A    between atoms: _14  and  _34
REMARK    6  A    between atoms: _16  and  _22
REMARK    7  A    between atoms: _17  and  _21
REMARK    8  A    between atoms: _21  and  _22
REMARK    9  A    between atoms: _24  and  _25
REMARK   10  A    between atoms: _26  and  _27
REMARK   11  A    between atoms: _28  and  _30
REMARK   12  A    between atoms: _30  and  _31
REMARK   13  A    between atoms: _30  and  _32
REMARK   14  A    between atoms: _32  and  _33
REMARK   15  A    between atoms: _32  and  _34
REMARK   16  A    between atoms: _35  and  _37
REMARK                            x       y       z     vdW  Elec       q    Type
REMARK                         _______ _______ _______ _____ _____    ______ ____
ROOT
ATOM      1  C   UNL     1      -6.657   9.127  23.848  0.00  0.00    +0.163 C 
ENDROOT
BRANCH   1   2
ATOM      2  O   UNL     1      -7.188   9.378  25.160  0.00  0.00    -0.388 OA
ATOM      3  H   UNL     1      -6.683  10.077  25.581  0.00  0.00    +0.210 HD
ENDBRANCH   1   2
BRANCH   1   4
ATOM      4  C   UNL     1      -7.681   8.372  23.007  0.00  0.00    +0.141 C 
BRANCH   4   7
ATOM      5  C   UNL     1      -7.630   8.740  20.564  0.00  0.00    +0.401 C 
ATOM      6  O   UNL     1      -6.917   7.761  20.336  0.00  0.00    -0.226 OA
ATOM      7  N   UNL     1      -8.031   9.104  21.783  0.00  0.00    -0.279 N 
ATOM      8  H   UNL     1      -8.607   9.929  21.869  0.00  0.00    +0.152 HD
BRANCH   5   9
ATOM      9  O   UNL     1      -8.063   9.553  19.470  0.00  0.00    -0.444 OA
BRANCH   9  10
ATOM     10  C   UNL     1      -7.508   9.051  18.252  0.00  0.00    +0.292 C 
BRANCH  10  12
ATOM     11  N   UNL     1      -6.872  11.404  17.841  0.00  0.00    -0.131 NA
ATOM     12  C   UNL     1      -6.646  10.073  17.629  0.00  0.00    +0.120 A 
ATOM     13  C   UNL     1      -5.542   9.927  16.818  0.00  0.00    +0.137 A 
ATOM     14  N   UNL     1      -5.083  11.200  16.646  0.00  0.00    -0.248 N 
ATOM     15  N   UNL     1      -5.934  12.088  17.204  0.00  0.00    -0.065 NA
BRANCH  14  16
ATOM     16  C   UNL     1      -3.854  11.693  16.036  0.00  0.00    +0.109 C 
ATOM     17  C   UNL     1      -3.340  10.718  14.959  0.00  0.00    +0.027 C 
ATOM     18  C   UNL     1      -4.217  10.753  13.710  0.00  0.00    +0.002 C 
ATOM     19  C   UNL     1      -4.246  12.152  13.106  0.00  0.00    +0.000 C 
ATOM     20  C   UNL     1      -4.670  13.216  14.115  0.00  0.00    +0.002 C 
ATOM     21  C   UNL     1      -3.921  13.117  15.450  0.00  0.00    +0.027 C 
ENDBRANCH  14  16
ENDBRANCH  10  12
ENDBRANCH   9  10
ENDBRANCH   5   9
ENDBRANCH   4   7
ENDBRANCH   1   4
BRANCH   1  22
ATOM     22  C   UNL     1      -5.356   8.311  23.928  0.00  0.00    +0.175 C 
BRANCH  22  23
ATOM     23  C   UNL     1      -4.168   9.162  24.399  0.00  0.00    +0.176 C 
ATOM     24  O   UNL     1      -4.360   9.456  25.810  0.00  0.00    -0.332 OA
ATOM     25  C   UNL     1      -3.263  10.177  26.463  0.00  0.00    +0.277 C 
ATOM     26  C   UNL     1      -2.942  11.483  25.695  0.00  0.00    +0.110 C 
ATOM     27  C   UNL     1      -2.761  11.226  24.185  0.00  0.00    +0.143 C 
ATOM     28  C   UNL     1      -3.957  10.468  23.609  0.00  0.00    +0.133 C 
BRANCH  28  29
ATOM     29  N   UNL     1      -3.733  10.153  22.190  0.00  0.00    -0.308 N 
ATOM     30  H   UNL     1      -3.011   9.484  21.963  0.00  0.00    +0.149 HD
ATOM     31  C   UNL     1      -4.423  10.693  21.181  0.00  0.00    +0.210 C 
ATOM     32  C   UNL     1      -5.499  11.728  21.558  0.00  0.00    +0.109 C 
ATOM     33  O   UNL     1      -4.223  10.399  20.002  0.00  0.00    -0.276 OA
ENDBRANCH  28  29
BRANCH  25  34
ATOM     34  C   UNL     1      -1.998   9.298  26.536  0.00  0.00    +0.414 C 
ATOM     35  O   UNL     1      -0.887   9.817  26.639  0.00  0.00    -0.240 OA
ATOM     36  O   UNL     1      -2.087   8.070  26.492  0.00  0.00    -0.240 OA
ENDBRANCH  25  34
BRANCH  27  37
ATOM     37  O   UNL     1      -2.618  12.470  23.498  0.00  0.00    -0.390 OA
ATOM     38  H   UNL     1      -3.180  12.473  22.720  0.00  0.00    +0.210 HD
ENDBRANCH  27  37
BRANCH  25  39
ATOM     39  O   UNL     1      -3.692  10.528  27.804  0.00  0.00    -0.343 OA
ATOM     40  C   UNL     1      -3.677  11.948  28.100  0.00  0.00    +0.198 C 
ENDBRANCH  25  39
ENDBRANCH  22  23
BRANCH  22  41
ATOM     41  O   UNL     1      -5.063   7.716  22.648  0.00  0.00    -0.387 OA
ATOM     42  H   UNL     1      -4.390   8.234  22.200  0.00  0.00    +0.210 HD
ENDBRANCH  22  41
ENDBRANCH   1  22
TORSDOF 14
