REMARK VINA RESULT:    -5.022      1.962      2.759
REMARK INTER + INTRA:         -11.746
REMARK INTER:                  -9.441
REMARK INTRA:                  -2.305
REMARK UNBOUND:                -2.759
REMARK  Name = lig_assembled_38.pdb
REMARK  17 active torsions:
REMARK  status: ('A' for Active; 'I' for Inactive)
REMARK    1  A    between atoms: _2  and  _9
REMARK    2  A    between atoms: _4  and  _19
REMARK    3  A    between atoms: _6  and  _7
REMARK    4  A    between atoms: _6  and  _19
REMARK    5  A    between atoms: _9  and  _10
REMARK    6  A    between atoms: _15  and  _35
REMARK    7  A    between atoms: _17  and  _23
REMARK    8  A    between atoms: _18  and  _22
REMARK    9  A    between atoms: _22  and  _23
REMARK   10  A    between atoms: _25  and  _26
REMARK   11  A    between atoms: _27  and  _28
REMARK   12  A    between atoms: _29  and  _31
REMARK   13  A    between atoms: _31  and  _32
REMARK   14  A    between atoms: _31  and  _33
REMARK   15  A    between atoms: _33  and  _34
REMARK   16  A    between atoms: _33  and  _35
REMARK   17  A    between atoms: _36  and  _38
REMARK                            x       y       z     vdW  Elec       q    Type
REMARK                         _______ _______ _______ _____ _____    ______ ____
ROOT
ATOM      1  C   UNL     1      -6.047  12.004  25.850  0.00  0.00    +0.163 C 
ENDROOT
BRANCH   1   2
ATOM      2  O   UNL     1      -5.883  11.003  24.832  0.00  0.00    -0.388 OA
ATOM      3  H   UNL     1      -5.101  11.201  24.311  0.00  0.00    +0.210 HD
ENDBRANCH   1   2
BRANCH   1   4
ATOM      4  C   UNL     1      -4.985  13.087  25.693  0.00  0.00    +0.141 C 
BRANCH   4   7
ATOM      5  C   UNL     1      -4.198  13.710  23.435  0.00  0.00    +0.401 C 
ATOM      6  O   UNL     1      -4.910  14.715  23.362  0.00  0.00    -0.226 OA
ATOM      7  N   UNL     1      -4.175  12.888  24.485  0.00  0.00    -0.279 N 
ATOM      8  H   UNL     1      -3.565  12.084  24.448  0.00  0.00    +0.152 HD
BRANCH   5   9
ATOM      9  O   UNL     1      -3.342  13.384  22.337  0.00  0.00    -0.444 OA
BRANCH   9  10
ATOM     10  C   UNL     1      -3.050  11.984  22.359  0.00  0.00    +0.292 C 
BRANCH  10  12
ATOM     11  N   UNL     1      -4.025   9.980  21.276  0.00  0.00    -0.131 NA
ATOM     12  C   UNL     1      -3.690  11.307  21.213  0.00  0.00    +0.120 A 
ATOM     13  C   UNL     1      -4.080  11.812  19.993  0.00  0.00    +0.137 A 
ATOM     14  N   UNL     1      -4.696  10.759  19.381  0.00  0.00    -0.247 N 
ATOM     15  N   UNL     1      -4.648   9.656  20.152  0.00  0.00    -0.065 NA
BRANCH  14  16
ATOM     16  C   UNL     1      -5.539  10.790  18.199  0.00  0.00    +0.180 C 
BRANCH  16  17
ATOM     17  C   UNL     1      -4.780  11.076  16.927  0.00  0.00    -0.025 A 
ATOM     18  C   UNL     1      -4.702  12.380  16.412  0.00  0.00    +0.005 A 
ATOM     19  C   UNL     1      -3.922  12.653  15.283  0.00  0.00    +0.001 A 
ATOM     20  C   UNL     1      -3.213  11.630  14.657  0.00  0.00    +0.015 A 
ATOM     21  C   UNL     1      -3.294  10.334  15.156  0.00  0.00    +0.018 A 
ATOM     22 BR   UNL     1      -2.326   8.944  14.315  0.00  0.00    -0.050 Br
ATOM     23  C   UNL     1      -4.069  10.051  16.282  0.00  0.00    +0.020 A 
ENDBRANCH  16  17
ENDBRANCH  14  16
ENDBRANCH  10  12
ENDBRANCH   9  10
ENDBRANCH   5   9
ENDBRANCH   4   7
ENDBRANCH   1   4
BRANCH   1  24
ATOM     24  C   UNL     1      -5.945  11.383  27.254  0.00  0.00    +0.175 C 
BRANCH  24  25
ATOM     25  C   UNL     1      -4.557  10.781  27.520  0.00  0.00    +0.176 C 
ATOM     26  O   UNL     1      -4.391   9.635  26.640  0.00  0.00    -0.332 OA
ATOM     27  C   UNL     1      -3.074   8.991  26.679  0.00  0.00    +0.277 C 
ATOM     28  C   UNL     1      -2.709   8.595  28.130  0.00  0.00    +0.110 C 
ATOM     29  C   UNL     1      -2.900   9.773  29.108  0.00  0.00    +0.143 C 
ATOM     30  C   UNL     1      -4.303  10.369  28.982  0.00  0.00    +0.133 C 
BRANCH  30  31
ATOM     31  N   UNL     1      -4.444  11.544  29.855  0.00  0.00    -0.308 N 
ATOM     32  H   UNL     1      -3.848  12.340  29.676  0.00  0.00    +0.149 HD
ATOM     33  C   UNL     1      -5.309  11.629  30.870  0.00  0.00    +0.210 C 
ATOM     34  C   UNL     1      -6.186  10.390  31.134  0.00  0.00    +0.109 C 
ATOM     35  O   UNL     1      -5.416  12.632  31.576  0.00  0.00    -0.276 OA
ENDBRANCH  30  31
BRANCH  27  36
ATOM     36  C   UNL     1      -1.990   9.931  26.113  0.00  0.00    +0.414 C 
ATOM     37  O   UNL     1      -0.830   9.853  26.516  0.00  0.00    -0.240 OA
ATOM     38  O   UNL     1      -2.274  10.766  25.253  0.00  0.00    -0.240 OA
ENDBRANCH  27  36
BRANCH  27  39
ATOM     39  O   UNL     1      -3.141   7.784  25.878  0.00  0.00    -0.343 OA
ATOM     40  C   UNL     1      -2.846   6.557  26.593  0.00  0.00    +0.198 C 
ENDBRANCH  27  39
BRANCH  29  41
ATOM     41  O   UNL     1      -2.700   9.324  30.449  0.00  0.00    -0.390 OA
ATOM     42  H   UNL     1      -3.224   9.859  31.049  0.00  0.00    +0.210 HD
ENDBRANCH  29  41
ENDBRANCH  24  25
BRANCH  24  43
ATOM     43  O   UNL     1      -6.964  10.378  27.428  0.00  0.00    -0.387 OA
ATOM     44  H   UNL     1      -6.551   9.518  27.535  0.00  0.00    +0.210 HD
ENDBRANCH  24  43
ENDBRANCH   1  24
TORSDOF 15
