REMARK VINA RESULT:    -4.275      2.517      7.320
REMARK INTER + INTRA:         -11.494
REMARK INTER:                  -7.495
REMARK INTRA:                  -4.000
REMARK UNBOUND:                -3.721
REMARK  Name = lig_assembled_35.pdb
REMARK  19 active torsions:
REMARK  status: ('A' for Active; 'I' for Inactive)
REMARK    1  A    between atoms: _2  and  _9
REMARK    2  A    between atoms: _4  and  _17
REMARK    3  A    between atoms: _5  and  _9
REMARK    4  A    between atoms: _5  and  _11
REMARK    5  A    between atoms: _6  and  _7
REMARK    6  A    between atoms: _6  and  _17
REMARK    7  A    between atoms: _9  and  _10
REMARK    8  A    between atoms: _13  and  _33
REMARK    9  A    between atoms: _15  and  _21
REMARK   10  A    between atoms: _16  and  _20
REMARK   11  A    between atoms: _20  and  _21
REMARK   12  A    between atoms: _23  and  _24
REMARK   13  A    between atoms: _25  and  _26
REMARK   14  A    between atoms: _27  and  _29
REMARK   15  A    between atoms: _29  and  _30
REMARK   16  A    between atoms: _29  and  _31
REMARK   17  A    between atoms: _31  and  _32
REMARK   18  A    between atoms: _31  and  _33
REMARK   19  A    between atoms: _34  and  _36
REMARK                            x       y       z     vdW  Elec       q    Type
REMARK                         _______ _______ _______ _____ _____    ______ ____
ROOT
ATOM      1  C   UNL     1      -5.366  12.357  29.088  0.00  0.00    +0.163 C 
ENDROOT
BRANCH   1   2
ATOM      2  O   UNL     1      -6.451  12.168  28.165  0.00  0.00    -0.388 OA
ATOM      3  H   UNL     1      -6.725  11.248  28.176  0.00  0.00    +0.210 HD
ENDBRANCH   1   2
BRANCH   1   4
ATOM      4  C   UNL     1      -4.040  11.860  28.487  0.00  0.00    +0.175 C 
BRANCH   4   5
ATOM      5  C   UNL     1      -4.227  10.586  27.649  0.00  0.00    +0.176 C 
ATOM      6  O   UNL     1      -3.435   9.530  28.259  0.00  0.00    -0.332 OA
ATOM      7  C   UNL     1      -3.574   8.203  27.651  0.00  0.00    +0.277 C 
ATOM      8  C   UNL     1      -3.277   8.269  26.133  0.00  0.00    +0.110 C 
ATOM      9  C   UNL     1      -4.072   9.400  25.446  0.00  0.00    +0.143 C 
ATOM     10  C   UNL     1      -3.858  10.734  26.161  0.00  0.00    +0.133 C 
BRANCH  10  11
ATOM     11  N   UNL     1      -4.688  11.785  25.551  0.00  0.00    -0.308 N 
ATOM     12  H   UNL     1      -5.687  11.738  25.692  0.00  0.00    +0.149 HD
ATOM     13  C   UNL     1      -4.206  12.797  24.824  0.00  0.00    +0.210 C 
ATOM     14  C   UNL     1      -2.682  12.826  24.607  0.00  0.00    +0.109 C 
ATOM     15  O   UNL     1      -4.924  13.671  24.338  0.00  0.00    -0.276 OA
ENDBRANCH  10  11
BRANCH   7  16
ATOM     16  C   UNL     1      -4.995   7.644  27.874  0.00  0.00    +0.414 C 
ATOM     17  O   UNL     1      -5.572   7.828  28.946  0.00  0.00    -0.240 OA
ATOM     18  O   UNL     1      -5.564   7.011  26.984  0.00  0.00    -0.240 OA
ENDBRANCH   7  16
BRANCH   7  19
ATOM     19  O   UNL     1      -2.601   7.322  28.269  0.00  0.00    -0.343 OA
ATOM     20  C   UNL     1      -2.129   6.241  27.425  0.00  0.00    +0.198 C 
ENDBRANCH   7  19
BRANCH   9  21
ATOM     21  O   UNL     1      -3.656   9.523  24.085  0.00  0.00    -0.390 OA
ATOM     22  H   UNL     1      -3.482  10.446  23.886  0.00  0.00    +0.210 HD
ENDBRANCH   9  21
ENDBRANCH   4   5
BRANCH   4  23
ATOM     23  O   UNL     1      -3.076  11.628  29.534  0.00  0.00    -0.387 OA
ATOM     24  H   UNL     1      -2.222  11.425  29.145  0.00  0.00    +0.210 HD
ENDBRANCH   4  23
ENDBRANCH   1   4
BRANCH   1  25
ATOM     25  C   UNL     1      -5.239  13.834  29.449  0.00  0.00    +0.141 C 
BRANCH  25  28
ATOM     26  C   UNL     1      -4.072  15.022  31.274  0.00  0.00    +0.401 C 
ATOM     27  O   UNL     1      -5.016  15.780  31.511  0.00  0.00    -0.226 OA
ATOM     28  N   UNL     1      -4.088  14.086  30.324  0.00  0.00    -0.279 N 
ATOM     29  H   UNL     1      -3.261  13.520  30.199  0.00  0.00    +0.152 HD
BRANCH  26  30
ATOM     30  O   UNL     1      -2.876  15.138  32.050  0.00  0.00    -0.444 OA
BRANCH  30  31
ATOM     31  C   UNL     1      -3.036  14.431  33.283  0.00  0.00    +0.292 C 
BRANCH  31  33
ATOM     32  N   UNL     1      -1.980  12.467  32.210  0.00  0.00    -0.131 NA
ATOM     33  C   UNL     1      -2.928  12.977  33.057  0.00  0.00    +0.120 A 
ATOM     34  C   UNL     1      -3.669  11.940  33.579  0.00  0.00    +0.138 A 
ATOM     35  N   UNL     1      -3.113  10.825  33.025  0.00  0.00    -0.238 N 
ATOM     36  N   UNL     1      -2.113  11.148  32.186  0.00  0.00    -0.065 NA
BRANCH  35  37
ATOM     37  C   UNL     1      -3.469   9.429  33.195  0.00  0.00    +0.214 C 
ATOM     38  C   UNL     1      -4.681   9.283  34.110  0.00  0.00    +0.045 C 
BRANCH  37  39
ATOM     39  C   UNL     1      -3.674   8.743  31.860  0.00  0.00    +0.329 C 
ATOM     40  O   UNL     1      -3.191   7.660  31.558  0.00  0.00    -0.249 OA
BRANCH  39  41
ATOM     41  O   UNL     1      -4.432   9.443  30.981  0.00  0.00    -0.479 OA
ATOM     42  H   UNL     1      -4.137   9.414  30.048  0.00  0.00    +0.295 HD
ENDBRANCH  39  41
ENDBRANCH  37  39
ENDBRANCH  35  37
ENDBRANCH  31  33
ENDBRANCH  30  31
ENDBRANCH  26  30
ENDBRANCH  25  28
ENDBRANCH   1  25
TORSDOF 16
