REMARK VINA RESULT:    -4.901      4.999      7.560
REMARK INTER + INTRA:         -11.529
REMARK INTER:                  -8.660
REMARK INTRA:                  -2.869
REMARK UNBOUND:                -2.759
REMARK  Name = lig_assembled_38.pdb
REMARK  17 active torsions:
REMARK  status: ('A' for Active; 'I' for Inactive)
REMARK    1  A    between atoms: _2  and  _9
REMARK    2  A    between atoms: _4  and  _19
REMARK    3  A    between atoms: _6  and  _7
REMARK    4  A    between atoms: _6  and  _19
REMARK    5  A    between atoms: _9  and  _10
REMARK    6  A    between atoms: _15  and  _35
REMARK    7  A    between atoms: _17  and  _23
REMARK    8  A    between atoms: _18  and  _22
REMARK    9  A    between atoms: _22  and  _23
REMARK   10  A    between atoms: _25  and  _26
REMARK   11  A    between atoms: _27  and  _28
REMARK   12  A    between atoms: _29  and  _31
REMARK   13  A    between atoms: _31  and  _32
REMARK   14  A    between atoms: _31  and  _33
REMARK   15  A    between atoms: _33  and  _34
REMARK   16  A    between atoms: _33  and  _35
REMARK   17  A    between atoms: _36  and  _38
REMARK                            x       y       z     vdW  Elec       q    Type
REMARK                         _______ _______ _______ _____ _____    ______ ____
ROOT
ATOM      1  C   UNL     1      -4.065  11.099  32.754  0.00  0.00    +0.163 C 
ENDROOT
BRANCH   1   2
ATOM      2  O   UNL     1      -4.883  11.291  33.919  0.00  0.00    -0.388 OA
ATOM      3  H   UNL     1      -4.640  12.114  34.350  0.00  0.00    +0.210 HD
ENDBRANCH   1   2
BRANCH   1   4
ATOM      4  C   UNL     1      -3.466   9.696  32.762  0.00  0.00    +0.141 C 
BRANCH   4   7
ATOM      5  C   UNL     1      -4.417   7.843  31.432  0.00  0.00    +0.401 C 
ATOM      6  O   UNL     1      -4.895   7.262  32.409  0.00  0.00    -0.226 OA
ATOM      7  N   UNL     1      -3.728   8.983  31.506  0.00  0.00    -0.279 N 
ATOM      8  H   UNL     1      -3.366   9.377  30.649  0.00  0.00    +0.152 HD
BRANCH   5   9
ATOM      9  O   UNL     1      -4.594   7.275  30.132  0.00  0.00    -0.444 OA
BRANCH   9  10
ATOM     10  C   UNL     1      -3.322   6.903  29.595  0.00  0.00    +0.292 C 
BRANCH  10  12
ATOM     11  N   UNL     1      -1.940   7.368  27.592  0.00  0.00    -0.131 NA
ATOM     12  C   UNL     1      -3.117   7.530  28.274  0.00  0.00    +0.120 A 
ATOM     13  C   UNL     1      -3.977   8.289  27.513  0.00  0.00    +0.137 A 
ATOM     14  N   UNL     1      -3.287   8.511  26.356  0.00  0.00    -0.247 N 
ATOM     15  N   UNL     1      -2.057   7.966  26.415  0.00  0.00    -0.065 NA
BRANCH  14  16
ATOM     16  C   UNL     1      -3.806   9.012  25.096  0.00  0.00    +0.180 C 
BRANCH  16  17
ATOM     17  C   UNL     1      -3.878  10.518  25.032  0.00  0.00    -0.025 A 
ATOM     18  C   UNL     1      -2.785  11.272  24.578  0.00  0.00    +0.005 A 
ATOM     19  C   UNL     1      -2.889  12.660  24.435  0.00  0.00    +0.001 A 
ATOM     20  C   UNL     1      -4.083  13.308  24.745  0.00  0.00    +0.015 A 
ATOM     21  C   UNL     1      -5.167  12.567  25.205  0.00  0.00    +0.018 A 
ATOM     22 BR   UNL     1      -6.793  13.442  25.616  0.00  0.00    -0.050 Br
ATOM     23  C   UNL     1      -5.073  11.182  25.350  0.00  0.00    +0.020 A 
ENDBRANCH  16  17
ENDBRANCH  14  16
ENDBRANCH  10  12
ENDBRANCH   9  10
ENDBRANCH   5   9
ENDBRANCH   4   7
ENDBRANCH   1   4
BRANCH   1  24
ATOM     24  C   UNL     1      -2.933  12.140  32.699  0.00  0.00    +0.175 C 
BRANCH  24  25
ATOM     25  C   UNL     1      -3.437  13.519  32.249  0.00  0.00    +0.176 C 
ATOM     26  O   UNL     1      -4.180  14.106  33.353  0.00  0.00    -0.332 OA
ATOM     27  C   UNL     1      -4.651  15.478  33.141  0.00  0.00    +0.277 C 
ATOM     28  C   UNL     1      -5.488  15.568  31.841  0.00  0.00    +0.110 C 
ATOM     29  C   UNL     1      -4.752  14.928  30.645  0.00  0.00    +0.143 C 
ATOM     30  C   UNL     1      -4.303  13.504  30.976  0.00  0.00    +0.133 C 
BRANCH  30  31
ATOM     31  N   UNL     1      -3.529  12.936  29.861  0.00  0.00    -0.308 N 
ATOM     32  H   UNL     1      -2.597  13.292  29.704  0.00  0.00    +0.149 HD
ATOM     33  C   UNL     1      -3.977  11.980  29.043  0.00  0.00    +0.210 C 
ATOM     34  C   UNL     1      -5.411  11.476  29.292  0.00  0.00    +0.109 C 
ATOM     35  O   UNL     1      -3.300  11.512  28.126  0.00  0.00    -0.276 OA
ENDBRANCH  30  31
BRANCH  27  36
ATOM     36  C   UNL     1      -3.462  16.458  33.058  0.00  0.00    +0.414 C 
ATOM     37  O   UNL     1      -3.511  17.430  32.306  0.00  0.00    -0.240 OA
ATOM     38  O   UNL     1      -2.455  16.277  33.744  0.00  0.00    -0.240 OA
ENDBRANCH  27  36
BRANCH  27  39
ATOM     39  O   UNL     1      -5.503  15.837  34.259  0.00  0.00    -0.343 OA
ATOM     40  C   UNL     1      -6.903  15.497  34.096  0.00  0.00    +0.198 C 
ENDBRANCH  27  39
BRANCH  29  41
ATOM     41  O   UNL     1      -5.616  14.897  29.509  0.00  0.00    -0.390 OA
ATOM     42  H   UNL     1      -5.181  15.318  28.764  0.00  0.00    +0.210 HD
ENDBRANCH  29  41
ENDBRANCH  24  25
BRANCH  24  43
ATOM     43  O   UNL     1      -1.882  11.685  31.824  0.00  0.00    -0.387 OA
ATOM     44  H   UNL     1      -1.161  11.328  32.348  0.00  0.00    +0.210 HD
ENDBRANCH  24  43
ENDBRANCH   1  24
TORSDOF 15
