REMARK VINA RESULT:    -5.030      7.599     12.130
REMARK INTER + INTRA:         -11.965
REMARK INTER:                  -8.648
REMARK INTRA:                  -3.317
REMARK UNBOUND:                -2.966
REMARK  Name = lig_assembled_89.pdb
REMARK  19 active torsions:
REMARK  status: ('A' for Active; 'I' for Inactive)
REMARK    1  A    between atoms: _2  and  _12
REMARK    2  A    between atoms: _5  and  _20
REMARK    3  A    between atoms: _7  and  _29
REMARK    4  A    between atoms: _9  and  _10
REMARK    5  A    between atoms: _9  and  _29
REMARK    6  A    between atoms: _20  and  _21
REMARK    7  A    between atoms: _20  and  _22
REMARK    8  A    between atoms: _25  and  _45
REMARK    9  A    between atoms: _27  and  _33
REMARK   10  A    between atoms: _28  and  _32
REMARK   11  A    between atoms: _32  and  _33
REMARK   12  A    between atoms: _35  and  _36
REMARK   13  A    between atoms: _37  and  _38
REMARK   14  A    between atoms: _39  and  _41
REMARK   15  A    between atoms: _41  and  _42
REMARK   16  A    between atoms: _41  and  _43
REMARK   17  A    between atoms: _43  and  _44
REMARK   18  A    between atoms: _43  and  _45
REMARK   19  A    between atoms: _46  and  _48
REMARK                            x       y       z     vdW  Elec       q    Type
REMARK                         _______ _______ _______ _____ _____    ______ ____
ROOT
ATOM      1  C   UNL     1      -1.762   8.348  28.346  0.00  0.00    +0.401 C 
ATOM      2  O   UNL     1      -1.187   9.255  27.741  0.00  0.00    -0.226 OA
ATOM      3  N   UNL     1      -2.552   8.540  29.403  0.00  0.00    -0.279 N 
ATOM      4  H   UNL     1      -2.988   7.732  29.826  0.00  0.00    +0.152 HD
ENDROOT
BRANCH   3   5
ATOM      5  C   UNL     1      -2.823   9.859  29.988  0.00  0.00    +0.141 C 
BRANCH   5   6
ATOM      6  C   UNL     1      -4.108  10.470  29.440  0.00  0.00    +0.163 C 
BRANCH   6   7
ATOM      7  O   UNL     1      -5.082  10.590  30.490  0.00  0.00    -0.388 OA
ATOM      8  H   UNL     1      -4.956  11.424  30.951  0.00  0.00    +0.210 HD
ENDBRANCH   6   7
BRANCH   6   9
ATOM      9  C   UNL     1      -3.799  11.843  28.817  0.00  0.00    +0.175 C 
BRANCH   9  10
ATOM     10  C   UNL     1      -5.077  12.619  28.466  0.00  0.00    +0.176 C 
ATOM     11  O   UNL     1      -5.021  12.956  27.053  0.00  0.00    -0.332 OA
ATOM     12  C   UNL     1      -6.215  13.613  26.510  0.00  0.00    +0.277 C 
ATOM     13  C   UNL     1      -6.561  14.876  27.337  0.00  0.00    +0.110 C 
ATOM     14  C   UNL     1      -6.600  14.573  28.849  0.00  0.00    +0.143 C 
ATOM     15  C   UNL     1      -5.312  13.888  29.306  0.00  0.00    +0.133 C 
BRANCH  15  16
ATOM     16  N   UNL     1      -5.397  13.527  30.730  0.00  0.00    -0.308 N 
ATOM     17  H   UNL     1      -6.093  12.847  31.003  0.00  0.00    +0.149 HD
ATOM     18  C   UNL     1      -4.614  14.038  31.684  0.00  0.00    +0.210 C 
ATOM     19  C   UNL     1      -3.581  15.090  31.239  0.00  0.00    +0.109 C 
ATOM     20  O   UNL     1      -4.698  13.705  32.867  0.00  0.00    -0.276 OA
ENDBRANCH  15  16
BRANCH  12  21
ATOM     21  C   UNL     1      -7.419  12.648  26.514  0.00  0.00    +0.414 C 
ATOM     22  O   UNL     1      -7.258  11.457  26.776  0.00  0.00    -0.240 OA
ATOM     23  O   UNL     1      -8.550  13.061  26.255  0.00  0.00    -0.240 OA
ENDBRANCH  12  21
BRANCH  14  24
ATOM     24  O   UNL     1      -6.771  15.788  29.579  0.00  0.00    -0.390 OA
ATOM     25  H   UNL     1      -6.538  16.533  29.021  0.00  0.00    +0.210 HD
ENDBRANCH  14  24
BRANCH  12  26
ATOM     26  O   UNL     1      -5.922  14.023  25.149  0.00  0.00    -0.343 OA
ATOM     27  C   UNL     1      -6.479  15.304  24.763  0.00  0.00    +0.198 C 
ENDBRANCH  12  26
ENDBRANCH   9  10
BRANCH   9  28
ATOM     28  O   UNL     1      -2.978  11.681  27.643  0.00  0.00    -0.387 OA
ATOM     29  H   UNL     1      -2.151  11.258  27.887  0.00  0.00    +0.210 HD
ENDBRANCH   9  28
ENDBRANCH   6   9
ENDBRANCH   5   6
ENDBRANCH   3   5
BRANCH   1  30
ATOM     30  O   UNL     1      -1.591   6.999  27.901  0.00  0.00    -0.444 OA
BRANCH  30  31
ATOM     31  C   UNL     1      -2.857   6.459  27.514  0.00  0.00    +0.292 C 
BRANCH  31  33
ATOM     32  N   UNL     1      -2.869   7.164  25.152  0.00  0.00    -0.131 NA
ATOM     33  C   UNL     1      -3.421   7.235  26.396  0.00  0.00    +0.121 A 
ATOM     34  C   UNL     1      -4.507   8.076  26.357  0.00  0.00    +0.145 A 
ATOM     35  N   UNL     1      -4.601   8.486  25.041  0.00  0.00    -0.199 N 
ATOM     36  N   UNL     1      -3.595   7.918  24.337  0.00  0.00    -0.059 NA
BRANCH  35  37
ATOM     37  C   UNL     1      -5.642   9.290  24.491  0.00  0.00    +0.186 A 
ATOM     38  C   UNL     1      -5.568  10.505  23.841  0.00  0.00    +0.158 A 
ATOM     39  C   UNL     1      -4.499  11.426  23.603  0.00  0.00    +0.280 A 
ATOM     40  O   UNL     1      -3.472  11.424  24.268  0.00  0.00    -0.265 OA
ATOM     41  N   UNL     1      -4.727  12.356  22.569  0.00  0.00    -0.302 N 
ATOM     42  C   UNL     1      -6.076  12.645  22.136  0.00  0.00    +0.069 A 
ATOM     43  C   UNL     1      -6.392  13.743  21.321  0.00  0.00    +0.028 A 
ATOM     44  C   UNL     1      -7.718  14.023  20.963  0.00  0.00    +0.002 A 
ATOM     45  C   UNL     1      -8.756  13.208  21.400  0.00  0.00    +0.002 A 
ATOM     46  C   UNL     1      -8.477  12.102  22.198  0.00  0.00    +0.028 A 
ATOM     47  C   UNL     1      -7.150  11.836  22.566  0.00  0.00    +0.072 A 
ATOM     48  N   UNL     1      -6.836  10.733  23.377  0.00  0.00    -0.291 N 
ATOM     49  C   UNL     1      -7.634   9.725  23.854  0.00  0.00    +0.207 A 
ATOM     50  N   UNL     1      -6.944   8.827  24.523  0.00  0.00    -0.216 NA
BRANCH  41  51
ATOM     51  C   UNL     1      -3.578  13.165  22.098  0.00  0.00    +0.085 C 
ATOM     52  C   UNL     1      -3.796  14.685  22.226  0.00  0.00    +0.030 C 
ATOM     53  C   UNL     1      -3.173  12.801  20.670  0.00  0.00    +0.030 C 
ENDBRANCH  41  51
ENDBRANCH  35  37
ENDBRANCH  31  33
ENDBRANCH  30  31
ENDBRANCH   1  30
TORSDOF 15
