REMARK VINA RESULT:    -5.362      3.115      5.778
REMARK INTER + INTRA:         -12.810
REMARK INTER:                 -10.840
REMARK INTRA:                  -1.970
REMARK UNBOUND:                -2.590
REMARK  Name = lig_assembled_29.pdb
REMARK  21 active torsions:
REMARK  status: ('A' for Active; 'I' for Inactive)
REMARK    1  A    between atoms: _2  and  _9
REMARK    2  A    between atoms: _4  and  _23
REMARK    3  A    between atoms: _6  and  _7
REMARK    4  A    between atoms: _6  and  _23
REMARK    5  A    between atoms: _9  and  _10
REMARK    6  A    between atoms: _12  and  _18
REMARK    7  A    between atoms: _13  and  _18
REMARK    8  A    between atoms: _14  and  _17
REMARK    9  A    between atoms: _15  and  _17
REMARK   10  A    between atoms: _19  and  _39
REMARK   11  A    between atoms: _21  and  _27
REMARK   12  A    between atoms: _22  and  _26
REMARK   13  A    between atoms: _26  and  _27
REMARK   14  A    between atoms: _29  and  _30
REMARK   15  A    between atoms: _31  and  _32
REMARK   16  A    between atoms: _33  and  _35
REMARK   17  A    between atoms: _35  and  _36
REMARK   18  A    between atoms: _35  and  _37
REMARK   19  A    between atoms: _37  and  _38
REMARK   20  A    between atoms: _37  and  _39
REMARK   21  A    between atoms: _40  and  _42
REMARK                            x       y       z     vdW  Elec       q    Type
REMARK                         _______ _______ _______ _____ _____    ______ ____
ROOT
ATOM      1  C   UNL     1      -4.660  11.161  21.066  0.00  0.00    +0.163 C 
ENDROOT
BRANCH   1   2
ATOM      2  O   UNL     1      -4.840   9.766  20.773  0.00  0.00    -0.388 OA
ATOM      3  H   UNL     1      -4.406   9.554  19.943  0.00  0.00    +0.210 HD
ENDBRANCH   1   2
BRANCH   1   4
ATOM      4  C   UNL     1      -3.326  11.404  21.793  0.00  0.00    +0.175 C 
BRANCH   4   5
ATOM      5  C   UNL     1      -3.524  11.652  23.295  0.00  0.00    +0.176 C 
ATOM      6  O   UNL     1      -3.947  10.401  23.904  0.00  0.00    -0.332 OA
ATOM      7  C   UNL     1      -4.084  10.420  25.363  0.00  0.00    +0.277 C 
ATOM      8  C   UNL     1      -5.032  11.563  25.803  0.00  0.00    +0.110 C 
ATOM      9  C   UNL     1      -4.640  12.908  25.156  0.00  0.00    +0.143 C 
ATOM     10  C   UNL     1      -4.523  12.773  23.637  0.00  0.00    +0.133 C 
BRANCH  10  11
ATOM     11  N   UNL     1      -4.065  14.038  23.041  0.00  0.00    -0.308 N 
ATOM     12  H   UNL     1      -3.114  14.327  23.222  0.00  0.00    +0.149 HD
ATOM     13  C   UNL     1      -4.824  14.829  22.278  0.00  0.00    +0.210 C 
ATOM     14  C   UNL     1      -6.276  14.373  22.043  0.00  0.00    +0.109 C 
ATOM     15  O   UNL     1      -4.409  15.876  21.780  0.00  0.00    -0.276 OA
ENDBRANCH  10  11
BRANCH   7  16
ATOM     16  C   UNL     1      -2.709  10.601  26.039  0.00  0.00    +0.414 C 
ATOM     17  O   UNL     1      -1.692  10.166  25.502  0.00  0.00    -0.240 OA
ATOM     18  O   UNL     1      -2.618  11.183  27.121  0.00  0.00    -0.240 OA
ENDBRANCH   7  16
BRANCH   7  19
ATOM     19  O   UNL     1      -4.668   9.157  25.775  0.00  0.00    -0.343 OA
ATOM     20  C   UNL     1      -4.659   8.119  24.763  0.00  0.00    +0.198 C 
ENDBRANCH   7  19
BRANCH   9  21
ATOM     21  O   UNL     1      -5.624  13.896  25.466  0.00  0.00    -0.390 OA
ATOM     22  H   UNL     1      -6.171  14.057  24.693  0.00  0.00    +0.210 HD
ENDBRANCH   9  21
ENDBRANCH   4   5
BRANCH   4  23
ATOM     23  O   UNL     1      -2.628  12.513  21.193  0.00  0.00    -0.387 OA
ATOM     24  H   UNL     1      -1.870  12.746  21.735  0.00  0.00    +0.210 HD
ENDBRANCH   4  23
ENDBRANCH   1   4
BRANCH   1  25
ATOM     25  C   UNL     1      -4.691  11.973  19.775  0.00  0.00    +0.141 C 
BRANCH  25  28
ATOM     26  C   UNL     1      -5.460  11.357  17.509  0.00  0.00    +0.401 C 
ATOM     27  O   UNL     1      -6.216  12.325  17.400  0.00  0.00    -0.226 OA
ATOM     28  N   UNL     1      -4.714  11.111  18.587  0.00  0.00    -0.279 N 
ATOM     29  H   UNL     1      -4.132  10.285  18.586  0.00  0.00    +0.152 HD
BRANCH  26  30
ATOM     30  O   UNL     1      -5.364  10.426  16.428  0.00  0.00    -0.444 OA
BRANCH  30  31
ATOM     31  C   UNL     1      -4.015   9.965  16.312  0.00  0.00    +0.292 C 
BRANCH  31  33
ATOM     32  N   UNL     1      -2.443   9.738  14.407  0.00  0.00    -0.131 NA
ATOM     33  C   UNL     1      -3.407  10.459  15.063  0.00  0.00    +0.120 A 
ATOM     34  C   UNL     1      -3.671  11.607  14.352  0.00  0.00    +0.137 A 
ATOM     35  N   UNL     1      -2.904  11.480  13.229  0.00  0.00    -0.247 N 
ATOM     36  N   UNL     1      -2.134  10.380  13.288  0.00  0.00    -0.065 NA
BRANCH  35  37
ATOM     37  C   UNL     1      -2.892  12.330  12.053  0.00  0.00    +0.180 C 
BRANCH  37  38
ATOM     38  C   UNL     1      -1.830  13.399  12.173  0.00  0.00    -0.022 A 
ATOM     39  C   UNL     1      -0.645  13.305  11.422  0.00  0.00    +0.054 A 
ATOM     40  C   UNL     1       0.313  14.329  11.464  0.00  0.00    +0.162 A 
ATOM     41  C   UNL     1       0.089  15.458  12.276  0.00  0.00    +0.162 A 
ATOM     42  C   UNL     1      -1.089  15.548  13.022  0.00  0.00    +0.050 A 
ATOM     43  C   UNL     1      -2.040  14.526  12.973  0.00  0.00    +0.009 A 
BRANCH  40  44
ATOM     44  O   UNL     1       1.484  14.322  10.746  0.00  0.00    -0.491 OA
ATOM     45  C   UNL     1       1.394  14.415   9.331  0.00  0.00    +0.277 C 
ENDBRANCH  40  44
BRANCH  41  46
ATOM     46  O   UNL     1       1.076  16.414  12.269  0.00  0.00    -0.491 OA
ATOM     47  C   UNL     1       0.830  17.612  11.548  0.00  0.00    +0.277 C 
ENDBRANCH  41  46
ENDBRANCH  37  38
ENDBRANCH  35  37
ENDBRANCH  31  33
ENDBRANCH  30  31
ENDBRANCH  26  30
ENDBRANCH  25  28
ENDBRANCH   1  25
TORSDOF 17
