REMARK VINA RESULT:    -4.208      3.620      9.497
REMARK INTER + INTRA:         -10.374
REMARK INTER:                  -7.069
REMARK INTRA:                  -3.305
REMARK UNBOUND:                -2.598
REMARK  Name = lig_assembled_67.pdb
REMARK  18 active torsions:
REMARK  status: ('A' for Active; 'I' for Inactive)
REMARK    1  A    between atoms: _2  and  _9
REMARK    2  A    between atoms: _4  and  _19
REMARK    3  A    between atoms: _6  and  _7
REMARK    4  A    between atoms: _6  and  _19
REMARK    5  A    between atoms: _9  and  _10
REMARK    6  A    between atoms: _10  and  _11
REMARK    7  A    between atoms: _15  and  _35
REMARK    8  A    between atoms: _17  and  _23
REMARK    9  A    between atoms: _18  and  _22
REMARK   10  A    between atoms: _22  and  _23
REMARK   11  A    between atoms: _25  and  _26
REMARK   12  A    between atoms: _27  and  _28
REMARK   13  A    between atoms: _29  and  _31
REMARK   14  A    between atoms: _31  and  _32
REMARK   15  A    between atoms: _31  and  _33
REMARK   16  A    between atoms: _33  and  _34
REMARK   17  A    between atoms: _33  and  _35
REMARK   18  A    between atoms: _36  and  _38
REMARK                            x       y       z     vdW  Elec       q    Type
REMARK                         _______ _______ _______ _____ _____    ______ ____
ROOT
ATOM      1  C   UNL     1      -2.926  11.723  24.866  0.00  0.00    +0.163 C 
ENDROOT
BRANCH   1   2
ATOM      2  O   UNL     1      -3.163  11.587  26.277  0.00  0.00    -0.388 OA
ATOM      3  H   UNL     1      -4.106  11.636  26.450  0.00  0.00    +0.210 HD
ENDBRANCH   1   2
BRANCH   1   4
ATOM      4  C   UNL     1      -3.779  10.723  24.066  0.00  0.00    +0.175 C 
BRANCH   4   5
ATOM      5  C   UNL     1      -4.134   9.477  24.892  0.00  0.00    +0.176 C 
ATOM      6  O   UNL     1      -2.892   8.870  25.343  0.00  0.00    -0.332 OA
ATOM      7  C   UNL     1      -3.038   7.720  26.240  0.00  0.00    +0.277 C 
ATOM      8  C   UNL     1      -3.942   6.642  25.595  0.00  0.00    +0.110 C 
ATOM      9  C   UNL     1      -5.262   7.245  25.071  0.00  0.00    +0.143 C 
ATOM     10  C   UNL     1      -4.994   8.437  24.150  0.00  0.00    +0.133 C 
BRANCH  10  11
ATOM     11  N   UNL     1      -6.259   9.056  23.727  0.00  0.00    -0.308 N 
ATOM     12  H   UNL     1      -6.791   9.564  24.421  0.00  0.00    +0.149 HD
ATOM     13  C   UNL     1      -6.751   8.993  22.487  0.00  0.00    +0.210 C 
ATOM     14  C   UNL     1      -5.930   8.190  21.460  0.00  0.00    +0.109 C 
ATOM     15  O   UNL     1      -7.807   9.534  22.157  0.00  0.00    -0.276 OA
ENDBRANCH  10  11
BRANCH   7  16
ATOM     16  C   UNL     1      -3.638   8.154  27.593  0.00  0.00    +0.414 C 
ATOM     17  O   UNL     1      -4.285   7.356  28.270  0.00  0.00    -0.240 OA
ATOM     18  O   UNL     1      -3.475   9.302  28.009  0.00  0.00    -0.240 OA
ENDBRANCH   7  16
BRANCH   9  19
ATOM     19  O   UNL     1      -5.995   6.252  24.353  0.00  0.00    -0.390 OA
ATOM     20  H   UNL     1      -6.842   6.105  24.781  0.00  0.00    +0.210 HD
ENDBRANCH   9  19
BRANCH   7  21
ATOM     21  O   UNL     1      -1.722   7.146  26.451  0.00  0.00    -0.343 OA
ATOM     22  C   UNL     1      -1.695   5.701  26.566  0.00  0.00    +0.198 C 
ENDBRANCH   7  21
ENDBRANCH   4   5
BRANCH   4  23
ATOM     23  O   UNL     1      -3.091  10.339  22.859  0.00  0.00    -0.387 OA
ATOM     24  H   UNL     1      -3.188  11.032  22.201  0.00  0.00    +0.210 HD
ENDBRANCH   4  23
ENDBRANCH   1   4
BRANCH   1  25
ATOM     25  C   UNL     1      -3.253  13.144  24.417  0.00  0.00    +0.141 C 
BRANCH  25  28
ATOM     26  C   UNL     1      -4.882  14.095  22.821  0.00  0.00    +0.401 C 
ATOM     27  O   UNL     1      -5.195  15.035  23.555  0.00  0.00    -0.226 OA
ATOM     28  N   UNL     1      -3.987  13.161  23.146  0.00  0.00    -0.279 N 
ATOM     29  H   UNL     1      -3.805  12.423  22.480  0.00  0.00    +0.152 HD
BRANCH  26  30
ATOM     30  O   UNL     1      -5.506  13.977  21.540  0.00  0.00    -0.444 OA
BRANCH  30  31
ATOM     31  C   UNL     1      -6.224  12.743  21.470  0.00  0.00    +0.292 C 
BRANCH  31  33
ATOM     32  N   UNL     1      -4.442  11.293  20.550  0.00  0.00    -0.131 NA
ATOM     33  C   UNL     1      -5.671  11.884  20.406  0.00  0.00    +0.120 A 
ATOM     34  C   UNL     1      -6.199  11.529  19.186  0.00  0.00    +0.137 A 
ATOM     35  N   UNL     1      -5.246  10.728  18.635  0.00  0.00    -0.251 N 
ATOM     36  N   UNL     1      -4.191  10.589  19.454  0.00  0.00    -0.065 NA
BRANCH  35  37
ATOM     37  C   UNL     1      -5.271  10.055  17.355  0.00  0.00    +0.150 C 
BRANCH  37  38
ATOM     38  C   UNL     1      -4.126  10.460  16.429  0.00  0.00    +0.084 C 
BRANCH  38  39
ATOM     39  C   UNL     1      -4.609  11.232  15.210  0.00  0.00    +0.252 C 
ATOM     40  O   UNL     1      -5.604  12.188  15.593  0.00  0.00    -0.349 OA
ATOM     41  C   UNL     1      -5.446  13.226  14.628  0.00  0.00    +0.191 C 
ATOM     42  C   UNL     1      -3.958  13.260  14.396  0.00  0.00    +0.191 C 
ATOM     43  O   UNL     1      -3.517  11.915  14.586  0.00  0.00    -0.349 OA
ENDBRANCH  38  39
ENDBRANCH  37  38
ENDBRANCH  35  37
ENDBRANCH  31  33
ENDBRANCH  30  31
ENDBRANCH  26  30
ENDBRANCH  25  28
ENDBRANCH   1  25
TORSDOF 16
