REMARK VINA RESULT:    -5.095      0.000      0.000
REMARK INTER + INTRA:         -11.963
REMARK INTER:                  -8.020
REMARK INTRA:                  -3.944
REMARK UNBOUND:                -2.848
REMARK  Name = lig_assembled_63.pdb
REMARK  17 active torsions:
REMARK  status: ('A' for Active; 'I' for Inactive)
REMARK    1  A    between atoms: _2  and  _11
REMARK    2  A    between atoms: _6  and  _20
REMARK    3  A    between atoms: _7  and  _15
REMARK    4  A    between atoms: _8  and  _9
REMARK    5  A    between atoms: _8  and  _20
REMARK    6  A    between atoms: _16  and  _36
REMARK    7  A    between atoms: _18  and  _24
REMARK    8  A    between atoms: _19  and  _23
REMARK    9  A    between atoms: _23  and  _24
REMARK   10  A    between atoms: _26  and  _27
REMARK   11  A    between atoms: _28  and  _29
REMARK   12  A    between atoms: _30  and  _32
REMARK   13  A    between atoms: _32  and  _33
REMARK   14  A    between atoms: _32  and  _34
REMARK   15  A    between atoms: _34  and  _35
REMARK   16  A    between atoms: _34  and  _36
REMARK   17  A    between atoms: _37  and  _39
REMARK                            x       y       z     vdW  Elec       q    Type
REMARK                         _______ _______ _______ _____ _____    ______ ____
ROOT
ATOM      1  C   UNL     1      -2.973  11.225  23.673  0.00  0.00    +0.163 C 
ENDROOT
BRANCH   1   2
ATOM      2  O   UNL     1      -2.283  11.561  24.888  0.00  0.00    -0.388 OA
ATOM      3  H   UNL     1      -2.872  11.436  25.636  0.00  0.00    +0.210 HD
ENDBRANCH   1   2
BRANCH   1   4
ATOM      4  C   UNL     1      -3.698  12.451  23.129  0.00  0.00    +0.141 C 
BRANCH   4   7
ATOM      5  C   UNL     1      -5.546  13.492  24.396  0.00  0.00    +0.401 C 
ATOM      6  O   UNL     1      -6.431  13.010  23.685  0.00  0.00    -0.226 OA
ATOM      7  N   UNL     1      -4.242  13.289  24.205  0.00  0.00    -0.279 N 
ATOM      8  H   UNL     1      -3.592  13.736  24.836  0.00  0.00    +0.152 HD
BRANCH   5   9
ATOM      9  O   UNL     1      -5.917  14.327  25.496  0.00  0.00    -0.444 OA
BRANCH   9  10
ATOM     10  C   UNL     1      -6.502  13.527  26.527  0.00  0.00    +0.292 C 
BRANCH  10  12
ATOM     11  N   UNL     1      -4.422  12.327  27.108  0.00  0.00    -0.131 NA
ATOM     12  C   UNL     1      -5.475  13.104  27.496  0.00  0.00    +0.121 A 
ATOM     13  C   UNL     1      -5.372  13.353  28.844  0.00  0.00    +0.145 A 
ATOM     14  N   UNL     1      -4.244  12.668  29.249  0.00  0.00    -0.200 N 
ATOM     15  N   UNL     1      -3.677  12.074  28.176  0.00  0.00    -0.059 NA
BRANCH  14  16
ATOM     16  C   UNL     1      -3.766  12.537  30.587  0.00  0.00    +0.173 A 
ATOM     17  C   UNL     1      -4.041  11.414  31.373  0.00  0.00    +0.096 A 
ATOM     18  C   UNL     1      -3.605  11.433  32.709  0.00  0.00    +0.024 A 
ATOM     19  C   UNL     1      -2.901  12.525  33.209  0.00  0.00    +0.021 A 
ATOM     20  C   UNL     1      -2.640  13.575  32.352  0.00  0.00    +0.113 A 
ATOM     21  N   UNL     1      -3.056  13.606  31.068  0.00  0.00    -0.235 NA
BRANCH  17  22
ATOM     22  C   UNL     1      -4.716  10.231  30.928  0.00  0.00    +0.103 C 
ATOM     23  N   UNL     1      -5.350   9.310  30.616  0.00  0.00    -0.191 NA
ENDBRANCH  17  22
ENDBRANCH  14  16
ENDBRANCH  10  12
ENDBRANCH   9  10
ENDBRANCH   5   9
ENDBRANCH   4   7
ENDBRANCH   1   4
BRANCH   1  24
ATOM     24  C   UNL     1      -3.988  10.093  23.912  0.00  0.00    +0.175 C 
BRANCH  24  25
ATOM     25  C   UNL     1      -3.903   9.533  25.340  0.00  0.00    +0.176 C 
ATOM     26  O   UNL     1      -2.866   8.513  25.359  0.00  0.00    -0.332 OA
ATOM     27  C   UNL     1      -2.569   7.937  26.674  0.00  0.00    +0.277 C 
ATOM     28  C   UNL     1      -3.860   7.383  27.326  0.00  0.00    +0.110 C 
ATOM     29  C   UNL     1      -5.001   8.421  27.300  0.00  0.00    +0.143 C 
ATOM     30  C   UNL     1      -5.223   8.957  25.886  0.00  0.00    +0.133 C 
BRANCH  30  31
ATOM     31  N   UNL     1      -6.253  10.008  25.888  0.00  0.00    -0.308 N 
ATOM     32  H   UNL     1      -6.055  10.862  26.391  0.00  0.00    +0.149 HD
ATOM     33  C   UNL     1      -7.433   9.908  25.270  0.00  0.00    +0.210 C 
ATOM     34  C   UNL     1      -7.715   8.584  24.534  0.00  0.00    +0.109 C 
ATOM     35  O   UNL     1      -8.271  10.810  25.277  0.00  0.00    -0.276 OA
ENDBRANCH  30  31
BRANCH  27  36
ATOM     36  C   UNL     1      -1.933   8.991  27.603  0.00  0.00    +0.414 C 
ATOM     37  O   UNL     1      -2.202   9.003  28.804  0.00  0.00    -0.240 OA
ATOM     38  O   UNL     1      -1.152   9.830  27.153  0.00  0.00    -0.240 OA
ENDBRANCH  27  36
BRANCH  27  39
ATOM     39  O   UNL     1      -1.645   6.835  26.482  0.00  0.00    -0.343 OA
ATOM     40  C   UNL     1      -1.880   5.683  27.331  0.00  0.00    +0.198 C 
ENDBRANCH  27  39
BRANCH  29  41
ATOM     41  O   UNL     1      -6.209   7.821  27.771  0.00  0.00    -0.390 OA
ATOM     42  H   UNL     1      -6.798   7.662  27.030  0.00  0.00    +0.210 HD
ENDBRANCH  29  41
ENDBRANCH  24  25
BRANCH  24  43
ATOM     43  O   UNL     1      -3.788   9.037  22.952  0.00  0.00    -0.387 OA
ATOM     44  H   UNL     1      -3.588   9.418  22.093  0.00  0.00    +0.210 HD
ENDBRANCH  24  43
ENDBRANCH   1  24
TORSDOF 15
